288
Lattice="33.330753 0.035012 0.030853 0.026941 25.654666 -0.000664 0.027078 9e-05 30.48131 " PBC="1 1 1" Properties="species:S:1:pos:R:3:force:R:3" Energy=" -5.285691"
Mo  -0.011134  -0.143725  16.873418   1.101672   0.581421   0.609446 
Mo   2.751913   1.481915  16.855545   0.408560  -0.279961   0.026832 
S    1.971039  -0.178780  18.526543  -0.787743   0.389597  -1.134935 
S    4.689224   1.464990  18.395971  -0.088825   0.070167  -0.236059 
S    4.564649   1.551932  15.179907   0.013864  -0.404687   0.339677 
S    1.773236  -0.166394  15.263071   0.474813   0.431422   0.063428 
Mo   5.577550  -0.085273  16.724094   0.390236   0.195238  -0.464063 
Mo   8.397587   1.561282  16.623495  -0.248634  -0.664852  -0.186906 
S    7.496941  -0.092544  18.234788   0.056016   0.255194  -0.101877 
S   10.255452   1.535786  18.204788  -0.094143   0.650154   0.275441 
S   10.273218   1.525324  15.047962  -0.120864   0.496488  -0.057371 
S    7.448091  -0.084620  15.016251  -0.333500   0.294719   0.814035 
Mo  11.187688  -0.035975  16.659995   0.156507  -0.307330  -1.074573 
Mo  13.933099   1.588458  16.747662  -0.571359  -0.068321  -0.229247 
S   12.916996  -0.010647  18.333600   0.790979  -0.066763  -0.139752 
S   15.740020   1.669444  18.370197   0.109455  -0.056139  -0.058669 
S   15.720419   1.544698  15.131164   0.745038   0.419754   0.472739 
S   13.093938  -0.074070  15.084746  -0.275761   0.362236   0.718703 
Mo  16.649105   0.014218  16.829676   0.534742  -0.286466  -0.019646 
Mo  19.451406   1.563572  16.892708   0.185003   0.418485  -1.028954 
S   18.536039  -0.049003  18.421669  -0.424510   0.093584   0.340795 
S   21.289115   1.593130  18.521989   0.180060  -0.482011  -0.376026 
S   21.368369   1.515078  15.334208  -0.459633   0.054939  -0.272883 
S   18.463948  -0.017460  15.206859   0.672707   0.351121   0.727511 
Mo  22.261371  -0.051105  16.927598   0.287502   0.163776   0.053537 
Mo  25.090586   1.553076  16.875995  -0.862156   0.054389   0.729773 
S   24.175831  -0.021417  18.511959  -0.712400   0.171170  -0.083550 
S   26.860938   1.483348  18.551817   0.294077   0.433632  -0.186905 
S   26.916765   1.504197  15.323985   0.305941  -0.039386  -0.134482 
S   24.151351  -0.012330  15.329349  -0.509541  -0.326758  -0.299392 
Mo  27.812575  -0.092586  16.962200   0.151593  -0.028312   0.201230 
Mo  30.583397   1.486493  16.907164   0.597118   0.801157   0.770856 
S   29.715330  -0.081796  18.573255  -0.299403  -0.149655  -0.391628 
S   32.520903   1.562992  18.502460  -0.933070  -0.319759  -0.004828 
S   32.486151   1.588541  15.331681  -0.820292  -0.680810  -0.146799 
S   29.635408  -0.159260  15.386680   0.433545   0.131703  -0.281453 
Mo   0.011033   3.137180  16.891529  -0.103302   0.023172   0.161211 
Mo   2.730578   4.681618  16.839614   1.502731  -0.101088   0.670326 
S    1.884582   3.081785  18.482309  -0.098166   0.128928  -0.214526 
S    4.738504   4.703995  18.443781  -0.586298  -0.027667  -0.965804 
S    4.597310   4.676618  15.229164  -0.097000   0.100848   0.158244 
S    1.794633   3.071600  15.282811   0.190354   0.153794  -0.370817 
Mo   5.583647   3.069870  16.790734   0.033038   0.841260  -0.534024 
Mo   8.387348   4.754026  16.643281   0.451546  -0.019109   0.419475 
S    7.487761   3.098342  18.268118   0.347188   0.306070   0.063200 
S   10.304643   4.819366  18.210808  -0.591125  -0.401811   0.023373 
S   10.299851   4.764165  15.044718  -0.790998   0.285063  -0.237883 
S    7.422184   3.180208  15.049501  -0.276359  -0.326477   0.562486 
Mo  11.201628   3.186236  16.621423  -0.695641  -0.373158   1.231884 
Mo  13.929504   4.806677  16.667177  -0.389281  -0.165237   0.186789 
S   13.019223   3.250209  18.299710  -0.230753  -0.203404  -0.247031 
S   15.760565   4.893186  18.265245   0.345801  -0.296395  -0.288405 
S   15.756854   4.726404  15.094788   0.448058   0.268139  -0.408941 
S   12.985725   3.166051  15.103397   1.041067  -0.120891  -0.486778 
Mo  16.726003   3.195606  16.721070  -0.271119   0.081654   0.576001 
Mo  19.501313   4.733746  16.792509  -0.921107   0.800818  -0.164433 
S   18.566081   3.260345  18.449848  -0.570401  -0.612500  -0.484134 
S   21.264879   4.793827  18.436584   0.802485   0.088108  -0.273380 
S   21.344472   4.676411  15.316846   0.814606   0.433354  -1.064518 
S   18.610934   3.170216  15.162139  -0.044865  -0.599108   0.465287 
Mo  22.288292   3.115172  16.883895  -0.675826   0.452795   0.201882 
Mo  25.065613   4.746725  16.871648  -0.790105   0.082488  -0.195350 
S   24.074727   3.160983  18.448578   0.760010  -0.077056   0.357071 
S   26.887666   4.733729  18.522766  -0.284530   0.108815  -0.158397 
S   26.931164   4.679963  15.318272  -0.168664   0.522587  -0.010134 
S   24.106857   3.082605  15.229207   0.380961   0.666574   0.693337 
Mo  27.778291   3.103480  16.942337   0.667615   0.056237   0.256712 
Mo  30.522525   4.779353  16.902144   0.261228   0.045359  -0.151034 
S   29.666246   3.155393  18.512393  -0.059737  -0.424778  -0.221048 
S   32.354990   4.811170  18.472847   0.267460  -0.208171   0.177667 
S   32.382503   4.730703  15.263279  -0.045853   0.256165   0.622109 
S   29.632249   3.112867  15.359688  -0.042965  -0.086195  -0.254013 
Mo  -0.002039   6.336903  16.846659   0.006548  -0.509545   0.050685 
Mo   2.785635   7.900434  16.805685  -0.023020   0.122196   0.893029 
S    1.865155   6.269930  18.454122   0.055174   0.458460  -0.303100 
S    4.670610   7.957788  18.390837   0.100060  -0.333611  -0.205014 
S    4.617703   7.953185  15.240211   0.061462  -0.120099  -0.512190 
S    1.846292   6.309353  15.284501  -0.159335  -0.147626  -0.790030 
Mo   5.580771   6.322134  16.760591   0.064614  -0.036149   0.390877 
Mo   8.241679   8.008703  16.729153   0.736474   0.167526  -0.558162 
S    7.499613   6.335351  18.283531  -0.469583  -0.208659   0.290403 
S   10.148609   8.015704  18.232696   0.267787  -0.255438   0.457171 
S   10.045786   8.005916  15.145537   0.577173   0.271058  -1.004882 
S    7.436938   6.363124  15.112038  -0.635935   0.012194  -0.057185 
Mo  11.112872   6.428793  16.607604   0.149770  -0.317010   0.702297 
Mo  13.963549   7.964338  16.651480  -0.178495   0.818843  -0.698196 
S   12.943634   6.416273  18.224133   0.205818   0.011799   0.167488 
S   15.816482   7.998262  18.198697   0.020805  -0.007164   0.250130 
S   15.803136   8.032666  14.995772  -0.091849  -0.357811  -0.040567 
S   12.990139   6.394852  15.078069   0.153942  -0.047706  -0.488966 
Mo  16.717010   6.417987  16.578879  -0.175123  -0.783942   0.812983 
Mo  19.439512   7.943765  16.739873   0.647657   0.624969  -0.547959 
S   18.494508   6.377778  18.285369  -0.166732  -0.111583   0.120819 
S   21.262293   8.031513  18.411588  -0.067367  -0.507608  -0.657261 
S   21.281715   7.951120  15.142221   0.550882   0.095065   0.415029 
S   18.612903   6.298657  15.067218   0.130764   0.315163   0.496686 
Mo  22.260983   6.404404  16.792430  -0.451982  -0.437972   0.554885 
Mo  25.042635   7.948373  16.935738   0.359771   0.702596  -0.799367 
S   24.069042   6.404635  18.423642  -0.139231  -0.932953   0.596717 
S   26.834886   7.954816  18.537256   0.286317   0.018542   0.147867 
S   26.905913   7.978550  15.345703  -0.111920  -0.071467  -0.231628 
S   24.194955   6.416748  15.270514  -0.401718  -0.617077   0.011086 
Mo  27.777357   6.377308  16.931905   0.356286  -0.745879  -0.816591 
Mo  30.554814   7.991415  16.899468   0.390486   0.159025   0.127453 
S   29.583273   6.443651  18.490638   0.532088  -0.542294   0.167846 
S   32.491629   7.935342  18.507868  -0.773662   0.465782  -0.297619 
S   32.403858   7.963321  15.303304   0.002185   0.398509   0.101804 
S   29.662158   6.372474  15.266808  -0.428694   0.156906   0.618401 
Mo   0.015106   9.572063  16.887274   0.144085  -0.351352   0.209607 
Mo   2.784956  11.133223  16.801339  -0.173970   0.137663  -0.515835 
S    1.929581   9.490802  18.434568  -0.264059   0.316532  -0.192576 
S    4.604498  11.225981  18.350405   0.573976  -0.260046   0.285197 
S    4.608175  11.165325  15.177811  -0.241501  -0.443683  -0.288164 
S    1.800352   9.527015  15.244974   0.223682  -0.086118  -0.063163 
Mo   5.527839   9.596766  16.789736   0.450697  -0.208016  -0.025200 
Mo   8.324297  11.239415  16.712325   0.589314  -1.354245   0.046942 
S    7.448273   9.621409  18.345953  -0.476083   0.185586  -0.153355 
S   10.273987  11.150443  18.287043  -0.637885  -0.192186   0.107766 
S   10.161541  11.098421  15.105640   0.030667   0.527093  -0.161806 
S    7.303227   9.638150  15.083604   0.277132  -0.224394   0.916940 
Mo  11.143357   9.556844  16.667162   0.222380   0.149163   0.007334 
Mo  13.869960  11.196972  16.584295   1.224194  -0.398950   0.701583 
S   13.092085   9.581178  18.242374  -0.684848  -0.008948  -0.254339 
S   15.785870  11.184099  18.225463  -0.291964  -0.020784  -0.467633 
S   15.759891  11.184943  15.056522   0.160138   0.109953  -0.386248 
S   13.011834   9.575395  15.005337  -0.343066  -0.385532   0.447484 
Mo  16.731347   9.578841  16.610811  -0.118339   0.482810   0.765525 
Mo  19.466909  11.183347  16.693948   0.374932  -0.054006   0.292841 
S   18.559524   9.616058  18.327216  -0.424411  -0.335733  -0.760530 
S   21.324857  11.168134  18.367875  -0.481210   0.174512  -0.261238 
S   21.354390  11.188588  15.167707   0.339724  -0.146063  -0.066297 
S   18.579194   9.559086  15.048498   0.348808   0.102166   0.534640 
Mo  22.217614   9.569385  16.786785   0.412343  -0.043481  -0.199891 
Mo  25.079323  11.215057  16.901256  -0.538502  -0.059056   0.865101 
S   24.046946   9.570639  18.436886  -0.019991   0.394048   0.228292 
S   26.929780  11.222928  18.555474  -0.410726  -0.471313  -0.187752 
S   26.899150  11.230045  15.363283   0.514242  -0.449179  -0.363571 
S   24.200951   9.554084  15.339928  -0.446157   0.357021  -0.529400 
Mo  27.808956   9.555030  16.943105  -0.258281   1.028016  -0.021300 
Mo  30.627520  11.180811  16.936679  -0.135876   0.366437   0.412315 
S   29.628881   9.589069  18.538111   0.539560  -0.047644  -0.285309 
S   32.545981  11.287237  18.568110  -0.653311  -0.671047  -0.728315 
S   32.441433  11.211938  15.312538  -0.024019  -0.181333   0.028706 
S   29.629085   9.622155  15.295767   0.273150  -0.188885   0.517455 
Mo   0.044061  12.797216  16.844719   0.836989  -0.515796  -0.065038 
Mo   2.804501  14.344835  16.753519  -0.194506   0.247982   0.323280 
S    1.965185  12.743805  18.390237  -0.620123   0.239590   0.136456 
S    4.589702  14.324968  18.301873   1.180581   0.308163   0.174447 
S    4.600000  14.346337  15.120500   0.227219  -0.185257  -0.087785 
S    1.861487  12.774030  15.178861  -0.168571  -0.402270   0.237033 
Mo   5.586333  12.742299  16.700061  -0.385878   0.682491   0.110860 
Mo   8.355857  14.374760  16.671307   0.090911   0.110492  -0.639806 
S    7.414981  12.834947  18.285708   0.165091  -0.182804   0.320599 
S   10.204492  14.387286  18.264222   0.423170  -0.316201  -0.205777 
S   10.248821  14.355249  15.077966  -0.216958  -0.029812   0.264617 
S    7.466412  12.767494  15.077416  -0.531521   0.269900   0.005308 
Mo  11.138210  12.705925  16.687463  -0.686823   1.162351  -0.291557 
Mo  13.867309  14.413328  16.597424   0.281810  -1.105643  -0.237591 
S   13.007661  12.753650  18.214577   0.074397   0.332837   0.131992 
S   15.719222  14.409816  18.138079   0.313653  -0.196131   0.867876 
S   15.772708  14.445348  15.095054   0.126309  -0.325070  -0.822185 
S   12.859129  12.749858  15.018587   0.767172   0.391750  -0.165560 
Mo  16.713116  12.789319  16.623573  -0.767379   0.206661   0.547318 
Mo  19.480915  14.416097  16.711627   0.513958  -0.465650  -0.129438 
S   18.516021  12.794662  18.265309   0.017607   0.115982   0.181571 
S   21.335634  14.414738  18.337762  -0.108045  -0.278894   0.013266 
S   21.395200  14.339319  15.194707   0.171217   0.506555  -0.194738 
S   18.545836  12.811120  15.114017   0.609235   0.040087  -0.608668 
Mo  22.302226  12.770132  16.800160  -0.786450   0.097859   0.067420 
Mo  25.044406  14.454676  16.934562   0.308833  -0.291875  -1.114117 
S   24.058218  12.871456  18.456983   0.361308  -0.673888   0.339443 
S   26.881974  14.427248  18.512892   0.359464  -0.057225   0.060999 
S   26.925357  14.467343  15.386093   0.219619  -0.683652  -0.236933 
S   24.172269  12.799654  15.285669   0.328382   0.296310  -0.024661 
Mo  27.845856  12.772709  16.954030   0.489176   1.229047  -0.299420 
Mo  30.670803  14.418190  16.947255  -0.107435  -0.353802  -0.431264 
S   29.716688  12.822835  18.554416  -0.004519  -0.241540  -0.393781 
S   32.508701  14.369224  18.505630   0.029953   0.445567   0.530454 
S   32.531233  14.448945  15.285165  -0.691912   0.073677   0.418560 
S   29.769553  12.828941  15.331233  -0.682029  -0.217881   0.443018 
Mo   0.066483  15.976991  16.939446  -0.234680   0.507397  -1.126838 
Mo   2.849817  17.591522  16.752354  -0.071394  -0.396587   0.261170 
S    1.966704  16.019998  18.380523   0.208576  -0.464906   0.495752 
S    4.699558  17.509405  18.298063   0.383515   0.117001  -0.003785 
S    4.610239  17.467293  15.046117   0.299086   0.479858   0.512546 
S    1.869196  15.960218  15.265584  -0.401598   0.259375  -0.614765 
Mo   5.591514  15.931764  16.690650  -0.417353  -0.298604   0.151675 
Mo   8.369328  17.505950  16.660005   0.550195   0.459528  -0.220759 
S    7.479597  15.941971  18.276788  -0.395785  -0.048511   0.077528 
S   10.237064  17.568478  18.239336  -0.045666  -0.101904   0.188817 
S   10.249314  17.558435  15.027605  -0.397819  -0.118836   0.291438 
S    7.370284  15.954276  15.029372   0.488117  -0.294236   0.481699 
Mo  11.171914  15.985266  16.653159  -0.204015  -0.254474   0.000301 
Mo  13.939291  17.625952  16.656912   0.164243  -0.172471   0.244110 
S   13.036767  15.933638  18.224146  -0.240304   0.751496   0.395407 
S   15.801239  17.597678  18.254601  -0.100760   0.211586   0.069483 
S   15.774668  17.615277  15.021689   0.386808   0.396369   0.721807 
S   13.016973  16.081847  15.073224  -0.200674  -0.412747  -0.591202 
Mo  16.732290  16.029040  16.653583  -0.258502   0.323347  -0.453298 
Mo  19.489629  17.625763  16.686855   1.054868   0.302940   0.143833 
S   18.569833  16.019770  18.233272  -0.180593   0.134625   0.849014 
S   21.356714  17.549847  18.310872  -0.445234   0.411532   0.130582 
S   21.479716  17.592802  15.138787  -0.571084   0.035485   0.291259 
S   18.637615  16.047230  15.115546  -0.408325  -0.247007  -0.621683 
Mo  22.359869  15.985192  16.781178  -0.670295   0.127148  -0.702385 
Mo  25.087375  17.662764  16.851784  -0.834029  -0.003131  -0.028700 
S   24.130779  16.096345  18.442508  -0.053360  -0.168479   0.360883 
S   26.886668  17.681946  18.456406   0.046972  -0.976025   0.868336 
S   26.925719  17.617221  15.279784   0.656088   0.074425   0.232964 
S   24.252568  16.050281  15.222652  -0.220607  -0.236955   0.327967 
Mo  27.876751  16.039961  16.934226   0.039747  -0.026073   0.039757 
Mo  30.626750  17.640959  16.998129   0.538024  -0.495691   0.087749 
S   29.747566  15.975693  18.557281  -0.478159   0.198040  -0.018715 
S   32.493320  17.657164  18.572172   0.128439  -0.343212  -0.086571 
S   32.490271  17.670188  15.343449  -0.286125  -0.414143   0.499059 
S   29.798358  16.013660  15.355252  -0.602435   0.276847   0.177757 
Mo   0.087933  19.187313  16.920176  -0.205643   0.213261   0.220931 
Mo   2.863077  20.724727  16.870176   0.005938   0.141168  -0.252373 
S    1.962820  19.093270  18.475949   0.196616   0.539947  -0.243182 
S    4.835880  20.673219  18.343835  -0.271890   0.302453  -0.462303 
S    4.604948  20.705549  15.169722   0.283942   0.062142  -0.143562 
S    1.873368  19.214530  15.242828  -0.129574  -0.095689  -0.011979 
Mo   5.648331  19.067205  16.655540  -0.768010   0.476389   0.422494 
Mo   8.356740  20.774667  16.660732   0.531385  -0.440007  -0.033898 
S    7.442977  19.081948  18.289007   0.541288   0.423724  -0.379519 
S   10.261676  20.767984  18.212160  -0.413230   0.130690   0.417646 
S   10.212217  20.797799  15.058081   0.091662  -0.043656   0.103704 
S    7.504475  19.154115  15.120481  -0.425034  -0.254947  -0.887865 
Mo  11.135826  19.156150  16.643358   0.054711   0.484974  -0.344072 
Mo  13.950548  20.804894  16.661435   0.011144  -0.041947   0.349068 
S   12.948729  19.184205  18.257369   0.479230   0.069783  -0.067106 
S   15.820855  20.812786  18.320899  -0.486750  -0.005629  -0.379279 
S   15.810373  20.911120  15.117481   0.226733  -0.615157  -0.195762 
S   12.989843  19.229979  15.066485   0.247410  -0.157293  -0.060876 
Mo  16.728824  19.240700  16.700608  -0.574103  -0.418640  -0.915435 
Mo  19.458255  20.782005  16.716170   0.792478   1.081474   0.180162 
S   18.517032  19.228017  18.292815   0.310001  -0.581436   0.337059 
S   21.236741  20.810490  18.327294   0.441005  -0.244040   0.490671 
S   21.401468  20.824083  15.171213  -0.427176   0.281403   0.080899 
S   18.605099  19.283301  15.123673  -0.473187  -0.739020  -0.704569 
Mo  22.270203  19.225121  16.781023   0.109167  -0.360644  -0.018719 
Mo  25.064402  20.791501  16.882707  -0.363506  -0.123259  -0.097250 
S   23.986811  19.191889  18.494043   0.827455   0.265839  -0.707175 
S   26.879193  20.736975  18.490956  -0.134081   0.186119   0.560477 
S   26.977842  20.755774  15.300472  -0.449616   0.218589   0.327504 
S   24.160851  19.277540  15.234862   0.060794  -0.316165   0.114347 
Mo  27.867074  19.184404  16.934994  -0.016200   0.284640  -0.405786 
Mo  30.576130  20.785172  17.077219   0.576061  -0.321022  -1.117246 
S   29.638966  19.196599  18.674472   0.186129  -0.277406  -0.607967 
S   32.484959  20.838420  18.607111   0.440520  -0.050737  -0.330889 
S   32.421349  20.850878  15.426786   0.082895  -0.152054   0.132802 
S   29.746110  19.200167  15.422731  -0.108928   0.115984  -0.338240 
Mo   0.134042  22.395378  16.933431  -0.834693  -0.641768  -0.152084 
Mo   2.859349  23.924918  16.810828   0.121289   0.881942   0.195582 
S    2.024368  22.371932  18.439073  -0.017755  -0.260394   0.623577 
S    4.747285  23.955252  18.324749   0.190354  -0.162285   0.133491 
S    4.630880  24.018307  15.140309   0.028304  -0.415987  -0.140694 
S    1.926118  22.365010  15.264735  -0.126969  -0.491039  -0.062351 
Mo   5.599909  22.355441  16.678918  -0.067856   0.044389   0.194236 
Mo   8.423566  23.977776  16.621308   0.082910   0.112632  -0.520211 
S    7.493488  22.393137  18.182692  -0.073127   0.121168   0.782188 
S   10.324141  24.035441  18.213613  -0.790786  -0.465471   0.313543 
S   10.292659  24.023025  15.007312  -0.050444  -0.293866   0.563176 
S    7.375986  22.375414  15.026746   0.502744   0.039687   0.372897 
Mo  11.186285  22.390649  16.656181   0.055275   0.352404  -0.723126 
Mo  13.991799  24.023506  16.768540  -1.008640  -0.154659  -0.748241 
S   13.035328  22.359347  18.241511  -0.193239   0.208146   0.657914 
S   15.776936  23.963375  18.361271   0.264975   0.499237   0.398324 
S   15.831846  24.096178  15.205913   0.031490  -0.229536  -0.302430 
S   13.052258  22.445251  15.075555   0.168481  -0.083972   0.422792 
Mo  16.744413  22.439733  16.739623   0.009496  -0.036332   0.690233 
Mo  19.494283  24.048474  16.817812   0.330971  -0.411087   0.224408 
S   18.625653  22.369977  18.380676  -0.620394   0.300585  -0.330617 
S   21.405792  23.977676  18.506963  -0.985911   0.368208  -0.362222 
S   21.350392  24.036821  15.242966   0.122891   0.456259   0.184771 
S   18.583952  22.467362  15.180776   0.267532   0.007665  -0.228816 
Mo  22.215820  22.455544  16.839358   0.891666  -1.121390  -0.312013 
Mo  25.011541  24.015362  16.913175   1.103719  -0.439653   0.108935 
S   24.086249  22.361221  18.438914  -0.236781   0.291478   0.350403 
S   26.872296  24.013344  18.565376  -0.097416  -0.586899  -0.367917 
S   26.902646  23.975161  15.360712   0.076522  -0.157133   0.182996 
S   24.129662  22.420721  15.293378   0.042842   0.099575  -0.028657 
Mo  27.829710  22.347188  16.976513  -0.886331   0.695066  -0.500310 
Mo  30.635868  23.917970  16.977484  -0.267647   0.189185  -0.690483 
S   29.636412  22.380633  18.550464   0.068512   0.378880   0.972749 
S   32.527336  23.994810  18.550944  -0.413498  -0.129022   0.117960 
S   32.477427  23.915861  15.312933  -0.396867   0.316007   0.259644 
S   29.589727  22.245452  15.361871   1.026980   0.880255   0.462465 
