288
Lattice="33.330317 0.034836 0.030871 0.026806 25.653059 -0.000664 0.027094 9e-05 30.630758 " PBC="1 1 1" Properties="species:S:1:pos:R:3:force:R:3" Energy=" -5.286339"
Mo   0.108397  -0.032522  16.661240   0.086050  -0.776362   1.014725 
Mo   2.884625   1.465825  16.730140   0.715469   0.535065  -0.434549 
S    1.964158  -0.102171  18.250911  -0.465231   0.037534   0.701477 
S    4.718667   1.531116  18.371765  -0.231196  -0.210385   0.144006 
S    4.868390   1.481843  15.222474  -0.785049  -0.044606  -0.303643 
S    1.942463  -0.087032  15.088403   0.521603  -0.118574  -0.101191 
Mo   5.655394  -0.130369  16.843465   1.402598   0.292563  -0.566619 
Mo   8.467740   1.485901  16.826311  -0.030484   0.447982   0.152428 
S    7.545433  -0.134132  18.424495  -0.623194   0.841336   0.453097 
S   10.262817   1.540922  18.523256  -0.045777  -0.143490  -0.220683 
S   10.387691   1.527664  15.320340  -0.282702  -0.176569  -0.368243 
S    7.611234  -0.129741  15.229399  -0.498109  -0.045974   0.314834 
Mo  11.252578  -0.053809  16.936863  -0.632311  -0.618827   0.964688 
Mo  14.012992   1.550624  16.962814  -0.624938  -0.102946   0.529842 
S   13.095620  -0.133470  18.566722   0.024479   0.582812  -0.271783 
S   15.876192   1.512617  18.529659  -0.018223   0.529511  -0.107099 
S   15.760711   1.561448  15.310655   0.492932   0.664676   0.066184 
S   13.062233  -0.044533  15.405514   0.277086   0.080931  -0.890259 
Mo  16.731060  -0.024328  16.841959   0.471364  -0.383210   0.631676 
Mo  19.511852   1.554649  16.798659  -0.184889   0.362327  -0.576617 
S   18.592707  -0.026721  18.368125   0.408804  -0.411710   0.347340 
S   21.335526   1.580404  18.399627   0.559490  -0.459697  -0.051974 
S   21.332773   1.546561  15.191597   0.493600   0.001127   0.259040 
S   18.525639  -0.108254  15.225589   0.643168   0.357380  -0.078447 
Mo  22.317678  -0.045674  16.808546   0.215510   0.141014   0.282167 
Mo  25.141622   1.534066  16.807410  -0.028975   0.347074  -0.681838 
S   24.228202  -0.068665  18.415427  -0.220598   0.049975  -0.405223 
S   27.010656   1.568460  18.371676  -0.104850  -0.186144   0.023482 
S   27.006985   1.592873  15.172626  -0.311060  -0.550137   0.512105 
S   24.167352  -0.112114  15.227379   0.220303   0.228793   0.097848 
Mo  27.889422  -0.085631  16.789123   0.362012   0.511081  -0.056829 
Mo  30.666851   1.587287  16.698460  -0.240786  -0.520703   0.446913 
S   29.771407   0.009859  18.353623  -0.082749  -0.223648  -0.278555 
S   32.490333   1.566824  18.314265   0.286885   0.200329  -0.163414 
S   32.540174   1.623787  15.150918  -0.341489  -0.321518  -0.741049 
S   29.723657  -0.081756  15.096701   0.013408  -0.082014   0.986569 
Mo   0.135184   3.137836  16.685429  -0.148526  -0.172584   0.028899 
Mo   2.893183   4.594359  16.774314   0.348914   1.494247  -0.092650 
S    1.926294   3.038166  18.320293   0.008670  -0.046184   0.364756 
S    4.746744   4.726083  18.405095  -0.461583  -0.473808   0.085391 
S    4.759975   4.693138  15.214086  -0.275542  -0.005024  -0.562623 
S    2.035209   3.034703  15.104417  -0.322615   0.422121   0.108228 
Mo   5.655117   3.130951  16.799669   0.341783  -0.586446  -0.458539 
Mo   8.433689   4.690874  16.813217   0.295049   0.346986   0.114516 
S    7.444197   3.100564  18.327734   0.706880  -0.137812   1.209312 
S   10.210671   4.704288  18.449991   0.204139   0.173746   0.369900 
S   10.368207   4.736051  15.311743  -0.379564  -0.091544  -0.206648 
S    7.567957   3.113719  15.206805  -0.258225  -0.382726  -0.048525 
Mo  11.229099   3.106253  16.924672   0.036097   0.703589   0.387392 
Mo  13.983012   4.715232  16.942181  -0.025493   0.693635   0.051835 
S   13.069650   3.185720  18.550940  -0.173853  -0.661575   0.089127 
S   15.787511   4.788201  18.555940   0.532956  -0.000337  -0.106035 
S   15.786294   4.765532  15.304967   0.319490   0.417565   0.441532 
S   13.059079   3.157517  15.362018   0.232891  -0.526850  -0.333618 
Mo  16.734940   3.217628  16.934848  -0.322419  -0.872439  -0.724053 
Mo  19.560903   4.831777  16.856057  -0.496719  -0.618883  -0.572557 
S   18.634788   3.184906  18.383846   0.187801   0.026419   0.727050 
S   21.388108   4.714920  18.442591   0.608191   0.318930  -0.554349 
S   21.394207   4.734205  15.222999  -0.093740   0.047182   0.109422 
S   18.551948   3.268976  15.285356   0.081260  -0.410301   0.033891 
Mo  22.370775   3.111672  16.817088  -1.073767   0.719687  -0.821328 
Mo  25.142578   4.771917  16.745329   0.021826  -0.010969  -0.326291 
S   24.226921   3.239367  18.329006   0.104958  -0.780823   0.576769 
S   26.976621   4.765215  18.416125  -0.145703   0.198296  -0.568865 
S   27.053156   4.798173  15.159231  -0.535104  -0.007943   0.249205 
S   24.186336   3.083364  15.130189   0.202158   0.381267   0.874974 
Mo  27.915073   3.194509  16.781734   0.349074  -0.373530   0.158887 
Mo  30.647903   4.736473  16.799276   0.428616   0.678219  -0.530661 
S   29.786067   3.132923  18.419164  -0.312370  -0.051850  -0.652107 
S   32.503927   4.751363  18.292497   0.431499   0.089981   0.556829 
S   32.535238   4.794511  15.084603  -0.247317  -0.001545   0.929996 
S   29.759210   3.209487  15.150584  -0.332359  -0.136924   0.045162 
Mo   0.155571   6.327725  16.714341  -0.163899  -0.677255   0.489087 
Mo   2.884314   7.873870  16.847121   0.497205   0.193107  -0.739998 
S    2.006475   6.242770  18.386036  -0.481846  -0.303334  -0.177176 
S    4.764596   7.870416  18.423954  -0.203228   0.251919  -0.184330 
S    4.757909   7.940095  15.216343  -0.325116  -0.239525   0.348285 
S    2.006128   6.258736  15.181298   0.329567   0.218412   0.121037 
Mo   5.632707   6.273673  16.806450   1.008490   1.041339   0.150531 
Mo   8.436278   7.953967  16.850416   0.304526   0.224299   0.165073 
S    7.542791   6.309726  18.419225  -0.604768  -0.013812  -0.164925 
S   10.243865   7.992351  18.537966  -0.105356  -0.110801  -0.447196 
S   10.312297   7.927295  15.264055  -0.158807   0.550885   0.508324 
S    7.541475   6.327882  15.274783  -0.260964   0.056605  -0.457295 
Mo  11.141168   6.376006  16.926361   0.984084  -0.606947  -0.044033 
Mo  13.959616   7.971202  16.936533   0.164554   0.092431   0.153674 
S   12.998656   6.303215  18.500999   0.109629   0.605665   0.225719 
S   15.750569   7.975035  18.590694   0.357791  -0.301605  -0.345011 
S   15.868798   8.072366  15.358276  -0.643732  -0.679074   0.162017 
S   13.070015   6.296646  15.378704  -0.385822   0.721232  -0.300368 
Mo  16.735325   6.388490  16.938611  -0.466449   0.126703  -0.390342 
Mo  19.576446   7.958113  16.949186  -0.344312   0.128106  -0.503047 
S   18.602715   6.382046  18.463956   0.214509  -0.433946   0.703706 
S   21.478860   7.900902  18.466443  -0.185752   0.206609   0.130598 
S   21.368532   8.072104  15.302566   0.021036  -0.442914  -0.328980 
S   18.565135   6.478978  15.287085   0.236902  -0.462226   0.389743 
Mo  22.309594   6.368665  16.766577   0.464920  -0.592254   0.884475 
Mo  25.037202   7.970635  16.764092   0.800646   0.087160   0.712756 
S   24.182011   6.346373  18.375483  -0.184878  -0.050889  -0.409961 
S   26.908342   7.999628  18.397469  -0.090078  -0.393342  -0.211303 
S   26.937482   8.005849  15.231878   0.204807   0.046636  -0.090763 
S   24.153538   6.336537  15.159970  -0.041530   0.322300   0.022818 
Mo  27.884002   6.382009  16.800589  -0.133713   0.092492   0.065461 
Mo  30.718589   7.918468  16.848088  -0.281115   0.230227  -0.598274 
S   29.681844   6.376200  18.409051   0.572980  -0.578567   0.037995 
S   32.579830   7.887309  18.397754  -0.199509   0.105269   0.357545 
S   32.556964   7.964298  15.205875  -0.271522   0.318422   0.072093 
S   29.779169   6.366657  15.226311  -0.308229   0.137996  -0.051139 
Mo   0.065261   9.542962  16.835208   1.293797  -0.739865   0.080133 
Mo   2.884016  11.129460  16.927096   0.528001  -1.237588  -0.896753 
S    1.946374   9.448229  18.463755  -0.159485   0.270316  -0.253985 
S    4.795839  11.089043  18.479856  -0.641944  -0.185662   0.243745 
S    4.702639  11.114120  15.231012   0.060000   0.131293   0.713983 
S    1.961304   9.492009  15.248605  -0.030747   0.459556   0.630797 
Mo   5.671465   9.530757  16.835516   0.025708  -0.047967   0.374027 
Mo   8.488645  11.166704  16.875690  -0.415841   0.246993   0.148225 
S    7.586198   9.608122  18.438362  -0.763062  -0.830243   0.130887 
S   10.300357  11.200680  18.527539  -0.275298  -0.387592   0.305699 
S   10.314940  11.182543  15.337282   0.293874   0.228488  -0.264680 
S    7.514181   9.615007  15.278690   0.301938  -0.527063  -0.246592 
Mo  11.196791   9.592524  16.937067   0.011580  -0.558160  -0.129893 
Mo  14.009891  11.203948  16.981890  -0.407921   0.105284  -0.320406 
S   13.048063   9.616605  18.532509  -0.076708  -0.524348   0.137537 
S   15.876340  11.229485  18.629845  -0.450681  -0.506698  -0.060462 
S   15.864282  11.200945  15.486675   0.167330  -0.096757  -0.826792 
S   13.050429   9.626942  15.386350   0.250149  -0.292945  -0.383690 
Mo  16.756204   9.559114  17.029726   0.017953   0.469933   0.370481 
Mo  19.526991  11.126204  17.013597   0.208353   1.190767  -0.131113 
S   18.654958   9.486988  18.561985  -0.201414   0.165059   0.606064 
S   21.407938  11.221177  18.594017  -0.138205  -0.861181  -0.174484 
S   21.351163  11.236107  15.366698  -0.270821  -0.372815   0.097965 
S   18.580371   9.544460  15.434030   0.161098   0.416494  -0.480851 
Mo  22.310803   9.599911  16.917356  -0.034903   0.390700  -0.369531 
Mo  25.099094  11.202065  16.822104  -0.174247  -0.951425   1.310203 
S   24.138504   9.551652  18.444713   0.804721   0.226735  -0.293434 
S   26.989213  11.136308  18.485367  -0.433241  -0.002624  -0.384351 
S   26.955362  11.176207  15.319319   0.243191  -0.013602  -0.734088 
S   24.168082   9.610307  15.214403  -0.654934   0.184765   0.240309 
Mo  27.925196   9.564957  16.857736  -0.290728   0.129696   0.025562 
Mo  30.719614  11.144204  16.927104  -0.702682  -0.121919   0.067136 
S   29.801319   9.488142  18.454813  -0.284042   0.055709   0.131665 
S   32.522901  11.117671  18.539861   0.032324   0.104172   0.063870 
S   32.515944  11.174548  15.308117  -0.026352  -0.021305  -0.387998 
S   29.805532   9.588294  15.282157  -0.080581  -0.262924   0.071913 
Mo   0.096523  12.670820  16.898936   0.080477   1.286397   0.283491 
Mo   2.938707  14.315562  16.875959  -0.254248   0.439438   0.207491 
S    1.986826  12.726508  18.456173  -0.321491   0.056275   0.574809 
S    4.758830  14.316915  18.505121   0.137303   0.108670  -0.330331 
S    4.831822  14.289752  15.297525  -0.400996   0.358009   0.077815 
S    1.974403  12.710610  15.344896  -0.152425  -0.022606  -0.506675 
Mo   5.654664  12.671577  16.909901   0.580692   0.888568  -0.213824 
Mo   8.474225  14.377747  16.977682  -0.989605   0.035206  -0.321842 
S    7.529399  12.684552  18.504544  -0.215351   0.405231   0.099346 
S   10.253070  14.364634  18.544933   0.696720   0.506928   0.580520 
S   10.292660  14.392661  15.396426   0.096725  -0.101603  -0.478624 
S    7.517868  12.808112  15.355681   0.197745  -0.135099  -0.272738 
Mo  11.199264  12.798928  16.993750   0.594591  -0.182036  -0.995873 
Mo  14.041229  14.393673  16.953616  -0.204358  -0.091676  -0.310951 
S   13.105102  12.780811  18.528540  -0.345199   0.442615   0.478550 
S   15.880383  14.414928  18.591575  -0.312944  -0.113831  -0.148423 
S   15.881816  14.423199  15.350199   0.091313  -0.680779   0.483946 
S   12.998980  12.832294  15.326875   0.796784  -0.258878   0.743130 
Mo  16.803573  12.783262  17.038270  -0.296418   0.907656  -0.454270 
Mo  19.551751  14.403163  16.955783  -0.717962  -0.307276   0.434218 
S   18.628225  12.764484  18.651096   0.282918   0.115353  -0.725417 
S   21.362917  14.397123  18.555806   0.189224  -0.131242   0.393057 
S   21.370048  14.370454  15.378994   0.083053   0.251045  -0.236315 
S   18.605290  12.798759  15.411981   0.158055  -0.432823   0.059563 
Mo  22.265844  12.777635  16.987045   1.005402   0.431625  -0.101987 
Mo  25.100846  14.378609  16.909539  -0.455971  -0.373770   0.218043 
S   24.258559  12.753617  18.517868  -0.651510  -0.024628  -0.324047 
S   26.918950  14.374091  18.522038   0.559742   0.136530  -0.393597 
S   26.936332  14.370485  15.321940   0.152352  -0.020554  -0.195851 
S   24.053469  12.801780  15.303222   0.467692   0.190061   0.272162 
Mo  27.869759  12.754144  16.902219   0.224555   0.239398   0.468838 
Mo  30.673128  14.314178  16.871319  -0.048054   0.247387   0.946292 
S   29.726139  12.742612  18.502040   0.024734  -0.074558  -0.051899 
S   32.456876  14.365385  18.569353   0.340836  -0.560452  -0.544714 
S   32.512189  14.345967  15.295559   0.475118  -0.016352   0.620931 
S   29.740715  12.694837  15.349802  -0.159555   0.213851  -0.582696 
Mo   0.134306  15.883132  16.964619   0.271737  -0.074377  -0.981697 
Mo   2.940529  17.557402  16.920508  -0.446746  -0.191519  -0.695082 
S    1.999516  15.895915  18.517289   0.235086   0.194847  -0.227841 
S    4.761728  17.570765  18.516055   0.056924  -0.150842  -0.132453 
S    4.776106  17.578496  15.274702  -0.150892  -0.042268   0.486074 
S    1.991006  15.922360  15.289959  -0.041949   0.053412   0.687240 
Mo   5.688414  15.964002  16.886702   0.060270  -0.082342   0.735920 
Mo   8.530321  17.597469  16.967502  -1.187188   0.470386   0.223751 
S    7.541702  16.027530  18.522096  -0.327187  -0.356172   0.197076 
S   10.345642  17.522634  18.554817   0.251853   0.458387   0.277122 
S   10.306707  17.517373  15.359415   0.488529   0.802583  -0.107971 
S    7.588854  16.030242  15.404432  -0.016726  -0.294053  -0.661667 
Mo  11.257890  15.986180  16.939557   0.796028  -0.604709   0.617878 
Mo  14.144900  17.578282  16.918947  -1.356388   0.783352   1.088634 
S   13.167203  15.971866  18.576047  -0.247851   0.339336  -0.681482 
S   15.981384  17.618591  18.549453  -0.582575   0.206049   0.191700 
S   15.942146  17.585682  15.327385   0.122205   0.283408   0.089405 
S   13.182141  16.041451  15.339679  -0.478840  -0.507264   0.213406 
Mo  16.791313  16.002934  16.972728   0.814058  -0.275138  -0.206399 
Mo  19.561177  17.593932  16.990639  -0.200757  -0.203452   0.280754 
S   18.616481  15.919886  18.615143   0.261038   0.740444  -0.599102 
S   21.483944  17.597906  18.548391  -0.461089   0.324111   0.370117 
S   21.406735  17.583029  15.415635   0.140139   0.234765  -0.197783 
S   18.608181  16.066980  15.337708   0.319969  -0.588869   0.598272 
Mo  22.321364  15.966710  16.982203  -0.146264  -0.090263  -0.661040 
Mo  25.123231  17.565284  16.855009   0.464600  -0.158646   0.640575 
S   24.146380  15.972338  18.512892   0.802075   0.067286   0.116158 
S   26.978859  17.586732  18.504372  -0.065255  -0.059671  -0.580844 
S   27.006962  17.527257  15.254514  -0.243173   0.432682   0.325118 
S   24.136550  15.920262  15.351626  -0.024930   0.512821  -0.497036 
Mo  27.897265  15.973568  16.877596   0.035496  -0.437140   0.683083 
Mo  30.713180  17.533389  16.951061   0.044577  -0.056256  -0.924891 
S   29.753070  15.917425  18.471840  -0.262092   0.052451   0.210937 
S   32.500189  17.538025  18.529687   0.631197   0.111039   0.648294 
S   32.653092  17.529800  15.385995  -0.650186  -0.062973  -0.017518 
S   29.805069  15.928817  15.326773  -0.300475   0.317680  -0.284069 
Mo   0.194397  19.109423  16.947507  -0.230770   0.464064  -1.039171 
Mo   2.940100  20.782707  16.852189  -0.045912  -0.221199   0.334796 
S    2.077024  19.179407  18.509506  -0.331446  -0.005630   0.005413 
S    4.769611  20.808332  18.467274  -0.329998   0.083551   0.364582 
S    4.786135  20.767596  15.275856   0.079206  -0.095175  -0.015998 
S    1.987635  19.171539  15.269250   0.194133  -0.543126   0.661877 
Mo   5.645031  19.190210  16.913670   0.949544  -0.432445   0.336622 
Mo   8.558259  20.775469  17.009417  -0.670898   0.449693  -0.583347 
S    7.542162  19.210806  18.566027  -0.170283  -0.321120  -0.254639 
S   10.433685  20.725288  18.583452  -0.310017   0.580218   0.115103 
S   10.388404  20.728099  15.350824   0.019533   0.401716   0.660003 
S    7.525006  19.238869  15.420481   0.670811  -0.373688  -0.360055 
Mo  11.298108  19.172547  16.989719  -0.099141  -1.147311  -1.083472 
Mo  14.030132  20.788094  16.909964   0.545257   0.033523  -0.161146 
S   13.159591  19.237087  18.533033   0.337926  -0.834413   0.018518 
S   15.914791  20.850588  18.484874  -0.081073   0.209775  -0.167382 
S   15.836818  20.761461  15.260293   0.354311   0.031346   0.309541 
S   13.113136  19.127103  15.310071   0.048189   0.338789   0.583215 
Mo  16.826466  19.227327  16.946685  -0.102412  -0.588227  -0.731770 
Mo  19.632392  20.695985  16.910561   0.144136   1.391178  -0.614177 
S   18.629079  19.213967  18.582123   0.423520  -0.191184  -0.243321 
S   21.487354  20.891613  18.504410   0.112292  -0.599408  -0.079683 
S   21.516028  20.809433  15.263745  -0.149025  -0.750095   0.738091 
S   18.628917  19.139926  15.313900   0.413001   0.105148   0.376040 
Mo  22.407789  19.206762  16.974795  -0.443120   0.041897  -1.007030 
Mo  25.133386  20.797432  16.879771   1.379457  -0.290699  -0.422688 
S   24.307660  19.181141  18.461010  -0.224662  -0.030992   0.588568 
S   27.073843  20.848067  18.448793  -0.437567  -0.338541  -0.296247 
S   26.994433  20.741932  15.247061  -0.091784  -0.114517   0.165525 
S   24.215951  19.195168  15.321652  -0.299238  -0.287288  -0.354425 
Mo  27.937677  19.173582  16.889160  -0.422238  -0.348674  -0.351507 
Mo  30.718017  20.775218  16.885960  -0.270960  -0.132604  -0.252063 
S   29.770900  19.176512  18.472665   0.068380   0.167824   0.366071 
S   32.575255  20.814270  18.406217   0.335978   0.571767   0.477694 
S   32.574976  20.708542  15.260111   0.093034  -0.048818   0.426146 
S   29.807783  19.090415  15.326190   0.068117   0.391851  -0.085156 
Mo   0.216414  22.377249  16.703891  -0.536274  -0.289413   1.110592 
Mo   2.966205  23.991199  16.711437  -0.545643  -0.803118   0.078616 
S    2.013512  22.459863  18.378146  -0.132250  -0.256086  -0.336570 
S    4.711642  23.971148  18.420893   0.163749   0.010325  -0.030078 
S    4.842089  23.935741  15.175373   0.201779   0.071137   0.229175 
S    2.107461  22.293380  15.176724  -0.369474   0.370388  -0.351883 
Mo   5.710747  22.373164  16.875944  -0.085022   0.173777  -0.251431 
Mo   8.522867  23.991775  16.905409  -0.659627  -1.449177  -0.193210 
S    7.520903  22.409885  18.539078   0.317683  -0.042999  -0.354654 
S   10.288499  23.983161  18.559053   0.658011   0.067255  -0.217857 
S   10.355340  23.911881  15.378483   0.552065   0.576780  -0.380088 
S    7.593621  22.336362  15.327646   0.476742   0.000062   0.345288 
Mo  11.327528  22.385618  16.995067  -0.801706  -0.572305  -0.314897 
Mo  14.049768  23.999667  16.912855   0.374760  -0.817123   0.318985 
S   13.194288  22.379471  18.560433  -0.100627   0.324868  -0.197603 
S   15.983447  23.898524  18.430446  -0.393586   0.899461   0.071717 
S   15.878935  24.069807  15.258230  -0.355572  -0.808011  -0.086143 
S   13.114703  22.377753  15.338807  -0.087882   0.303638  -0.104139 
Mo  16.865270  22.378019  16.801592  -0.558335  -0.029230  -0.224588 
Mo  19.591513  23.960741  16.795572   0.036021   0.259349   0.859986 
S   18.695882  22.361996  18.406048   0.111322   0.194668   0.175924 
S   21.503606  24.016076  18.419752  -0.433624  -0.218114  -0.315033 
S   21.415522  23.975137  15.250965   0.576798  -0.116513  -0.240687 
S   18.746737  22.293379  15.234695  -0.120289  -0.154678   0.090430 
Mo  22.472103  22.382040  16.838256  -1.029262   0.807984   0.205545 
Mo  25.187547  23.941860  16.811468  -0.821894   0.376136   1.011971 
S   24.287332  22.354085  18.484485  -0.133866   0.635206  -0.191788 
S   27.040998  23.880053  18.428972  -0.084970   1.104294  -0.346931 
S   26.960548  23.970034  15.247344   0.497400   0.048237  -0.913974 
S   24.287792  22.378131  15.195825  -0.190778  -0.175245   0.252546 
Mo  27.940917  22.386950  16.774989   0.265785  -0.296930   1.045042 
Mo  30.701967  23.989461  16.802378   0.376698   0.452187  -0.738765 
S   29.795304  22.504351  18.469277  -0.146820  -0.902859  -0.647096 
S   32.601975  24.024046  18.353304  -0.058355   0.062461  -0.404586 
S   32.573517  23.997236  15.184571  -0.392409  -0.219410  -0.408450 
S   29.772861  22.295701  15.252790   0.455783   0.419115  -0.355144 
