288
Lattice="33.32844 0.035125 0.030868 0.027028 25.653247 -0.000664 0.027091 9e-05 30.386176 " PBC="1 1 1" Properties="species:S:1:pos:R:3:force:R:3" Energy=" -5.285672"
Mo   0.142550   0.030957  16.794808   0.085069  -0.913641   0.160697 
Mo   2.878334   1.590882  16.806328  -0.157952  -0.561095   0.024897 
S    1.951580   0.045762  18.509086   0.072686  -0.347267  -1.205559 
S    4.709896   1.581846  18.381998   0.002864   0.270574   0.452521 
S    4.718744   1.574123  15.231160  -0.167208   0.042758  -0.670287 
S    2.015203  -0.046910  15.172491  -0.327761   0.530887   0.496872 
Mo   5.661386   0.031610  16.819205   0.037847  -1.102505   0.074247 
Mo   8.473011   1.569426  16.802359  -0.708632  -0.669698   0.608943 
S    7.457607  -0.008824  18.460914   0.841473  -0.120295  -1.096645 
S   10.336535   1.478164  18.461914  -0.522046   0.976792  -0.423324 
S   10.276169   1.648052  15.228907   0.334123  -0.427567  -0.042377 
S    7.446887   0.013054  15.157376   0.357312   0.393545   0.299661 
Mo  11.229302   0.003928  16.816711   0.113960  -0.412347  -1.259265 
Mo  13.929067   1.635811  16.785399   1.078007  -0.239818  -0.115013 
S   13.059482   0.016719  18.397205   0.257521  -0.395960  -0.230226 
S   15.822487   1.677189  18.314430  -0.288028  -0.701999   0.611662 
S   15.859277   1.658380  15.170784  -0.843169  -0.607304  -0.038702 
S   13.126482   0.065317  15.162971  -0.856170  -0.376092   0.119573 
Mo  16.732075  -0.019157  16.780400   0.670285   1.017365  -0.415271 
Mo  19.557240   1.562943  16.843170  -0.339628   0.267276  -0.510527 
S   18.546928  -0.048685  18.368286   0.538034  -0.162090   0.305551 
S   21.448786   1.532602  18.419890  -0.458805   0.369727  -0.086168 
S   21.414215   1.603186  15.230773  -0.586901  -0.046792  -0.590295 
S   18.649858  -0.030209  15.191182  -0.530469   0.605122   0.183038 
Mo  22.306155   0.004886  16.759016  -0.149528  -0.835741   0.204707 
Mo  25.030922   1.637625  16.719033   1.857658  -0.557514   0.562319 
S   24.118964   0.020587  18.347202   0.572616  -0.018561   0.047024 
S   26.969905   1.623833  18.336536  -0.696079   0.173280  -0.281360 
S   26.922642   1.658725  15.079471   0.196554  -0.340729   0.849817 
S   24.155455   0.043215  15.161840  -0.068580  -0.552966  -0.214144 
Mo  27.834518   0.036403  16.762960   0.720155  -0.035391   0.254509 
Mo  30.703005   1.643598  16.813935  -0.518116   0.475626   0.454345 
S   29.672096   0.093030  18.401036   0.219058  -0.459754  -0.012148 
S   32.455836   1.555922  18.442099   0.688218   0.756183  -0.165000 
S   32.533103   1.625658  15.177736  -0.118302  -0.522857   0.053415 
S   29.785770   0.055968  15.323571  -0.303426  -0.412172  -1.202184 
Mo   0.118744   3.111934  16.754478  -0.254429   1.058355   0.683366 
Mo   2.865947   4.765488  16.800585  -0.589325  -0.059793  -0.489455 
S    1.947468   3.176365  18.392715  -0.162013   0.002024  -0.055933 
S    4.712173   4.731805  18.399309  -0.224387   0.231872   0.115198 
S    4.694969   4.748619  15.165625  -0.019563   0.278118   0.249506 
S    1.944821   3.158856  15.186266   0.287393   0.036919  -0.019947 
Mo   5.612727   3.181757  16.778759   0.675993  -0.152778  -0.005746 
Mo   8.405835   4.835539  16.776536  -0.175534  -0.913512   0.288390 
S    7.493465   3.162342  18.330362   0.070189   0.389310   0.431358 
S   10.196701   4.779322  18.450978   0.238263   0.378979  -0.519954 
S   10.272131   4.801528  15.187226  -0.215471  -0.106623   0.509253 
S    7.528331   3.128866  15.216448  -0.235973   0.570076  -0.101163 
Mo  11.177917   3.205789  16.850620  -0.144720   0.015626   0.527679 
Mo  13.951033   4.790376  16.788421   0.110260   0.566244  -0.527388 
S   13.089747   3.209791  18.430810  -0.558158   0.188169  -0.192082 
S   15.822548   4.835041  18.347347   0.142649  -0.079355   0.109279 
S   15.869538   4.897601  15.197105  -0.677887  -0.556755  -0.147107 
S   12.949797   3.199944  15.227688   0.508552   0.275813  -0.353319 
Mo  16.717954   3.208356  16.734308   0.999764   0.892193   0.742901 
Mo  19.504638   4.813495  16.783986  -0.218954  -1.095126   0.515950 
S   18.548825   3.168263  18.425331   0.212932   0.244151  -0.817399 
S   21.330040   4.707814  18.431958   0.292545   0.271927  -0.267591 
S   21.391407   4.808850  15.311574  -0.011796  -0.210966  -0.955810 
S   18.565645   3.119045  15.178892   0.732221   0.401648   0.509284 
Mo  22.337291   3.152976  16.796036  -0.562351   0.616688   0.286264 
Mo  25.093966   4.794219  16.799303   0.076779  -0.020537   0.183063 
S   24.167330   3.186955  18.313561   0.115028   0.033284   1.150970 
S   27.006199   4.708560  18.362706  -0.192079   0.506157  -0.066144 
S   26.892459   4.826555  15.217118   0.810246  -0.204110  -0.381352 
S   24.177981   3.214624  15.145417  -0.470605   0.430320  -0.067353 
Mo  27.959563   3.189460  16.724858  -1.286264   0.090316   0.637874 
Mo  30.690077   4.821722  16.828053  -0.250564  -0.050170  -0.377287 
S   29.753822   3.257943  18.449216   0.009056  -0.291898  -0.692277 
S   32.579216   4.793779  18.371640  -0.475569   0.037111   0.346230 
S   32.519214   4.827161  15.201292  -0.035579  -0.257985   0.290143 
S   29.775864   3.240220  15.200391   0.494479   0.007062  -0.247134 
Mo   0.027271   6.424994  16.785755   0.704884  -0.437709  -0.805865 
Mo   2.809246   7.909361  16.774270   0.152812   0.509865   0.146707 
S    1.889352   6.355751  18.384673  -0.130770  -0.030675   0.052266 
S    4.599339   7.885552  18.411605   0.448431   0.767178  -0.351909 
S    4.638345   7.935333  15.155015   0.333908  -0.183237   0.492958 
S    1.872500   6.337662  15.167297   0.130004  -0.087903   0.363443 
Mo   5.567213   6.349895  16.810906   0.185912   0.126335  -0.761510 
Mo   8.379181   8.015335  16.800418  -0.586618  -0.250522  -0.192189 
S    7.406654   6.428223  18.373445   0.402230  -0.263489   0.237759 
S   10.186738   8.006208  18.440947   0.391551   0.004322  -0.599677 
S   10.181786   7.933327  15.177244   0.285117   0.027753   0.132075 
S    7.426762   6.408537  15.220983   0.100616  -0.013695  -0.231630 
Mo  11.140680   6.394201  16.817184   0.382205  -0.110582  -0.059608 
Mo  14.008645   7.959758  16.749884  -0.661494  -0.017004  -0.791403 
S   13.037496   6.396791  18.374812  -0.020503  -0.020691  -0.111470 
S   15.790407   8.014343  18.342271   0.751178   0.464354   0.165755 
S   15.936721   8.017162  15.151322  -0.823218   0.079183   0.067111 
S   13.021154   6.389194  15.142633  -0.121750  -0.227217   0.759651 
Mo  16.808877   6.447663  16.778079  -0.281717   0.053870   0.061335 
Mo  19.557083   8.006313  16.766000  -0.566871  -0.031389  -0.640177 
S   18.629612   6.454085  18.366073  -0.079966  -0.250345   0.302580 
S   21.326881   7.983041  18.388548   0.748414   0.310684   0.319176 
S   21.429516   7.989233  15.232554   0.301873  -0.144106   0.002392 
S   18.637653   6.385786  15.138183   0.061806   0.116063   0.349854 
Mo  22.319473   6.366607  16.878258  -0.251136   0.346425   0.234783 
Mo  25.115972   8.001296  16.838218   0.572450   0.557392  -0.199818 
S   24.238216   6.426019  18.414171  -0.409148  -0.507394   0.381034 
S   27.061649   7.992524  18.403828  -0.555488   0.112455  -0.166241 
S   26.980275   8.000828  15.220395  -0.324643  -0.065776  -0.043008 
S   24.109802   6.387929  15.282007   0.501864   0.327222  -0.619085 
Mo  27.912015   6.385608  16.788708  -0.024122  -0.213658   0.141886 
Mo  30.584116   7.976629  16.751420   0.091253   0.567538   0.479198 
S   29.728923   6.400259  18.430798  -0.033568  -0.071285  -0.371192 
S   32.386976   8.076732  18.339906   0.560247   0.069568   0.128460 
S   32.344754   8.043450  15.158561   1.088433  -0.370775  -0.185734 
S   29.761028   6.384068  15.148616  -0.480677  -0.496275   0.332822 
Mo   0.078949   9.588618  16.652348  -0.388456  -0.491472   0.958221 
Mo   2.809285  11.176862  16.725548   0.269527  -0.408441  -0.894342 
S    1.878455   9.605428  18.324317   0.091859  -0.351065  -0.161677 
S    4.671264  11.169825  18.311036   0.124760   0.366797  -0.228596 
S    4.685941  11.128379  15.123858  -0.017240   0.108457   0.202299 
S    1.974367   9.439343  15.132327  -0.308793   0.845931  -0.092467 
Mo   5.595443   9.542967  16.756085  -0.476638  -0.222746   0.067397 
Mo   8.400311  11.160728  16.721587  -0.321374   0.094838   0.884534 
S    7.396575   9.577329  18.385411   0.412406   0.457736  -0.265716 
S   10.257587  11.162616  18.343449  -0.029061   0.079217  -0.307582 
S   10.214219  11.101183  15.121928   0.301746   0.325189  -0.026394 
S    7.440642   9.573606  15.140617   0.042936  -0.149762   0.334019 
Mo  11.119137   9.541935  16.743652   0.993714   0.044318   0.378237 
Mo  14.014635  11.177912  16.694332  -0.133902  -0.481747   0.681444 
S   13.057157   9.533263  18.311940  -0.218695   0.550666  -0.223635 
S   15.835558  11.258176  18.369704  -0.089020   0.044587  -0.526944 
S   15.894433  11.233499  15.112532  -0.390700   0.293118  -0.145312 
S   13.023593   9.540508  15.146790   0.032990   0.010153   0.222009 
Mo  16.727702   9.678970  16.723729   0.775338  -0.986171   0.725907 
Mo  19.628094  11.185303  16.745155  -0.128017  -0.667475   0.226996 
S   18.613975   9.640359  18.284058  -0.240768  -0.251169   0.475677 
S   21.401662  11.108368  18.465480   0.063837   0.507564  -0.740632 
S   21.481672  11.134853  15.117918  -0.089151   0.061465   0.717241 
S   18.608861   9.597585  15.142101   0.315531   0.145526   0.245932 
Mo  22.384606   9.601037  16.809502  -0.513589  -0.485339  -0.030220 
Mo  25.095916  11.206214  16.836001   0.363495   0.460513   0.991429 
S   24.163611   9.581154  18.479033   0.441684   0.217903  -0.586382 
S   27.003261  11.246829  18.399634  -0.331959  -0.484442   0.180492 
S   26.900651  11.209595  15.269767   0.476225  -0.006106  -0.875263 
S   24.295799   9.683635  15.220044  -0.803538  -1.053561   0.046976 
Mo  27.911655   9.615039  16.780148  -0.573878   0.028290   0.265918 
Mo  30.682304  11.192499  16.671652  -0.602685   0.282167   0.765551 
S   29.749415   9.642710  18.304220   0.125307  -0.141248   0.456462 
S   32.497325  11.193647  18.312680  -0.081882   0.082894  -0.113988 
S   32.514353  11.216260  15.120439  -0.093482   0.010353  -0.645360 
S   29.713897   9.577882  15.142862  -0.204853   0.160036  -0.342004 
Mo   0.030748  12.796679  16.696104   0.381082  -0.070489  -0.515523 
Mo   2.834931  14.347312  16.618592   0.689281   1.359673   0.448475 
S    1.886789  12.821315  18.241745   0.183950  -0.063240   0.465480 
S    4.755630  14.426273  18.239985  -0.531404  -0.387139  -0.385729 
S    4.695576  14.374853  15.038672   0.246847  -0.292519   0.098825 
S    1.822337  12.767987  15.074144   0.569143  -0.290653   0.003536 
Mo   5.647782  12.776134  16.664523  -0.324247   0.122337   0.857384 
Mo   8.485951  14.370238  16.716574   0.114935   0.174325   0.124967 
S    7.510680  12.822124  18.305166  -0.264724  -0.295332  -0.115194 
S   10.336481  14.420917  18.310577   0.012619  -0.573133  -0.256073 
S   10.352839  14.359454  15.136055  -0.362679   0.019308  -0.445511 
S    7.512339  12.804222  15.165175   0.153049  -0.294243  -0.770495 
Mo  11.226508  12.726308  16.690374  -0.774191   0.110247   0.717301 
Mo  13.955067  14.361237  16.735781   0.505905   0.288731  -0.694500 
S   13.051936  12.754033  18.270134  -0.022630  -0.225539   0.581447 
S   15.793977  14.445512  18.299052   0.360236  -0.187019   0.297071 
S   15.822186  14.409665  15.147036   0.077806  -0.054266   0.009539 
S   13.056591  12.706212  15.134430   0.143436   0.419792  -0.611524 
Mo  16.802458  12.832008  16.730349  -0.369080  -0.441072  -0.002918 
Mo  19.573864  14.369265  16.724934   0.497495  -0.134015   0.592263 
S   18.612568  12.757749  18.318313   0.483421   0.369633   0.299952 
S   21.455225  14.385322  18.384088  -0.570506  -0.040017  -0.423431 
S   21.453267  14.308387  15.160305  -0.016807   0.071748   0.265033 
S   18.756875  12.755418  15.209019  -0.971979   0.130745  -1.084236 
Mo  22.329658  12.707719  16.820235  -0.317303   0.815769  -0.446280 
Mo  25.090743  14.443465  16.844960   0.577187  -0.767480  -0.688047 
S   24.133325  12.830704  18.390898   0.454035  -0.149689   0.591448 
S   27.004862  14.391324  18.378074  -0.308836   0.332355   0.305160 
S   26.945135  14.396195  15.201811  -0.312842  -0.100378   0.090685 
S   24.169942  12.828866  15.229610   0.179509  -0.120008   0.205268 
Mo  27.890088  12.801992  16.794948   0.061173   0.247502  -0.493910 
Mo  30.665794  14.398529  16.722197  -0.274615   0.332931   0.026270 
S   29.751635  12.773686  18.343580   0.363917   0.140063  -0.257757 
S   32.512713  14.460121  18.282992  -0.017911  -0.088755   0.332658 
S   32.460381  14.408029  15.047118   0.268373   0.258649   0.797271 
S   29.688476  12.816347  15.114467   0.163871  -0.056602   0.205887 
Mo   0.136848  15.984777  16.650679  -0.429796   0.737525  -0.676245 
Mo   2.933993  17.625048  16.671421   0.186218   0.169341  -0.798463 
S    2.015996  16.046081  18.247608  -0.310775  -0.622020  -0.307696 
S    4.798119  17.616707  18.258816  -0.156656  -0.508960  -0.086644 
S    4.776489  17.657926  15.020424   0.053417  -0.073934   0.870170 
S    1.989182  16.042739  15.016647  -0.184795  -0.156333   0.615238 
Mo   5.677109  15.979673  16.609252  -0.239885   0.618227   0.613238 
Mo   8.494452  17.625916  16.704082  -0.061750   0.128066  -1.073749 
S    7.568343  16.038338  18.204795  -0.585009  -0.360537   0.820281 
S   10.361094  17.664528  18.250643  -0.220128  -0.482414   0.424781 
S   10.349159  17.656608  15.057263  -0.323420  -0.551714   0.259687 
S    7.557928  15.926621  15.130550   0.318562   0.650130  -0.660149 
Mo  11.225199  16.004534  16.683671   0.184099   0.444177   0.130082 
Mo  14.004950  17.662728  16.680290   0.850819  -0.701714  -0.397932 
S   13.090998  16.037236  18.262265  -0.239834   0.096803   0.345165 
S   15.908498  17.718073  18.265534  -0.536751  -0.454561   0.317740 
S   15.843744  17.603438  15.019018   0.072776   0.230275   1.021588 
S   13.085044  15.973733  15.154995  -0.024114   0.150881  -0.551468 
Mo  16.753488  16.040965  16.733740  -0.495778  -0.325854  -1.152173 
Mo  19.535500  17.499988  16.622601   0.199902   0.836989   0.107011 
S   18.610310  15.955571  18.228880   0.042062   0.202635   1.157076 
S   21.354932  17.573001  18.205178   0.373250   0.391147   0.532996 
S   21.348281  17.557250  15.061184   0.890915  -0.460071  -0.206659 
S   18.574059  15.913149  15.116663   0.064382  -0.257024  -0.584343 
Mo  22.328772  15.966818  16.730824   0.463628   0.094058  -0.420216 
Mo  25.169734  17.637352  16.732931  -0.498991  -0.172827   0.446905 
S   24.173945  16.052918  18.383512  -0.126082   0.428547  -0.209885 
S   27.029418  17.637531  18.364666  -0.512461  -0.202572  -0.115715 
S   27.019022  17.582103  15.149280  -0.094608   0.485871   0.041322 
S   24.238082  15.996682  15.191487  -0.257330   0.073524  -0.097635 
Mo  27.881603  15.995460  16.760673   0.681584   0.299032   0.341706 
Mo  30.669553  17.654097  16.758855   0.319726  -0.285199  -0.295157 
S   29.780573  16.054205  18.335833  -0.261235  -0.475344  -0.058661 
S   32.557024  17.611131  18.322684   0.014534   0.071473  -0.087425 
S   32.480943  17.745141  15.120641   0.663947  -0.402490   0.668894 
S   29.732501  16.006456  15.161293  -0.011516   0.256304   0.016289 
Mo   0.186114  19.241015  16.779588  -0.179455  -0.275542  -0.762919 
Mo   2.948797  20.853873  16.752163   0.140209   0.182507  -0.019775 
S    2.077218  19.213124  18.305511  -0.248705  -0.188614   0.290897 
S    4.774997  20.839237  18.378259   0.131350  -0.078910  -0.135967 
S    4.789742  20.860628  15.148010  -0.093607   0.212067   0.198324 
S    2.003696  19.311794  15.109933  -0.071552  -0.384441   0.434154 
Mo   5.684108  19.250537  16.741375   0.679988  -0.259797  -0.596070 
Mo   8.500235  20.801388  16.648202   0.315861   0.380334   0.150730 
S    7.605759  19.225571  18.334500  -0.280440  -0.005956  -0.608422 
S   10.369395  20.829912  18.258458  -0.195959   0.166688  -0.195076 
S   10.366060  20.824073  15.010249  -0.179134   0.185731   0.623769 
S    7.528760  19.210058  15.100893  -0.154850  -0.100349   0.095736 
Mo  11.251395  19.232845  16.672049   0.572352   0.277079  -0.837613 
Mo  14.042687  20.874095  16.680085   0.498815  -0.909564  -1.015317 
S   13.112603  19.249550  18.246559  -0.229508   0.193882   0.336957 
S   15.881408  20.817515  18.272570   0.231067   0.004944  -0.232121 
S   15.896336  20.828368  15.016136  -0.122770   0.124107   0.805094 
S   13.125723  19.238813  15.059349  -0.232618   0.240851   0.266554 
Mo  16.829781  19.212536  16.655680  -0.505320   0.320348  -0.969630 
Mo  19.595824  20.758162  16.587746   0.258275   0.452919  -0.454224 
S   18.734212  19.157948  18.160261  -0.492550   0.073472   0.815654 
S   21.394011  20.744103  18.180869   0.467638   0.265390   0.420396 
S   21.514434  20.845341  15.019065  -0.199540   0.129480   0.351667 
S   18.665263  19.123812  15.042453  -0.205146   0.248249  -0.378201 
Mo  22.352919  19.176567  16.600015  -0.054257  -0.042976   0.702895 
Mo  25.148397  20.858033  16.780833  -0.230054  -0.393770  -0.482437 
S   24.169061  19.209016  18.318927  -0.117213   0.045960  -0.459194 
S   27.014888  20.844049  18.351676  -0.152625   0.202126   0.207920 
S   26.990028  20.893571  15.184343   0.284583  -0.210351   0.117464 
S   24.235606  19.223769  15.088665   0.470434   0.062270   0.354568 
Mo  27.905738  19.232509  16.765742  -0.007126   0.114283  -0.105968 
Mo  30.740363  20.860272  16.790840   0.468387  -0.152072   0.110913 
S   29.753717  19.214752  18.364953   0.082375   0.302586   0.090470 
S   32.602254  20.835053  18.434598  -0.194173   0.089834  -0.075470 
S   32.669525  20.933965  15.249170  -0.676027  -0.348298  -0.140208 
S   29.749632  19.279675  15.235511   0.196896   0.093402  -0.804715 
Mo   0.203435  22.453231  16.855612  -0.307232   0.040475  -0.046953 
Mo   2.921583  24.075334  16.826069   0.336150   0.003397   0.366310 
S    2.085045  22.460375  18.391659  -0.298305  -0.361458   0.335376 
S    4.820428  24.028373  18.430944  -0.259593   0.192840  -0.375223 
S    4.775274  24.017134  15.261614  -0.245998   0.642899  -0.574817 
S    1.987415  22.464398  15.200606   0.209175   0.223910   0.182234 
Mo   5.699488  22.447521  16.785289   0.694921  -0.744712  -0.152279 
Mo   8.441745  24.081784  16.691729   0.331594  -0.396120   1.408630 
S    7.626262  22.361516  18.268306  -0.145896   0.624199   0.155417 
S   10.324776  23.955196  18.318102  -0.177118   0.271943  -0.442182 
S   10.288225  24.135952  15.115459   0.458028  -0.288194   0.327871 
S    7.577395  22.472401  15.106189  -0.612660  -0.257774   0.188485 
Mo  11.274087  22.431447  16.646882   0.240155   0.211766  -0.040693 
Mo  14.024772  24.069916  16.725978   0.600871   0.439376  -0.087271 
S   13.185012  22.426184  18.266112  -0.964145   0.182782   0.248341 
S   15.878970  23.978531  18.310512  -0.162562   0.102226   0.224466 
S   15.944275  24.117945  15.143127  -0.785054  -0.426466  -0.249298 
S   13.200792  22.497819  15.074935  -0.672067  -0.068635   0.028689 
Mo  16.786537  22.421698  16.669726   0.825855  -0.327819  -0.144244 
Mo  19.539456  24.019231  16.742675   0.139159  -0.743865  -0.158280 
S   18.691820  22.291523  18.253321  -0.476955   0.260513  -0.158928 
S   21.368108  23.990625  18.325966   0.503785   0.073527  -0.029939 
S   21.375875  24.095509  15.138920   0.452440  -0.366170   0.182942 
S   18.656639  22.421752  15.035275  -0.128156   0.158179   0.617788 
Mo  22.395266  22.445562  16.708797  -1.005142  -0.156446  -0.385447 
Mo  25.145500  24.093111  16.759733   0.506279  -0.046423   0.130202 
S   24.208447  22.474613  18.314575  -0.047675  -0.113802   0.438917 
S   27.003233  24.095560  18.442542  -0.145949  -0.157075  -1.072007 
S   27.078358  24.060421  15.177061  -0.629696  -0.051477   0.080575 
S   24.273907  22.459840  15.181878  -0.037113   0.104903  -0.359947 
Mo  27.983202  22.468457  16.791522  -0.637683   0.174629   0.311883 
Mo  30.746155  24.102595  16.867710  -0.406434   0.039359  -0.125099 
S   29.848988  22.412767  18.355947  -0.370804   0.460719   0.883210 
S   32.548860  24.112914  18.445450   0.508191   0.060791   0.156731 
S   32.602753  24.060732  15.269276  -0.089765   0.250989  -0.035234 
S   29.866831  22.539825  15.249631  -0.106229  -0.369722  -0.488956 
