288
Lattice="33.336703 0.035033 0.030853 0.026957 25.650738 -0.000664 0.027078 9e-05 30.464017 " PBC="1 1 1" Properties="species:S:1:pos:R:3:force:R:3" Energy=" -5.284662"
Mo   0.090381  -0.096041  16.919449   0.157908  -0.097585  -0.229630 
Mo   2.878539   1.539651  16.856135  -0.573838  -0.178920   0.099692 
S    2.066949  -0.099479  18.541382  -0.708689   0.272702  -0.759072 
S    4.781374   1.562404  18.366779  -0.412976  -0.141524   0.413843 
S    4.683085   1.579528  15.225900  -0.358190  -0.119231  -0.417534 
S    1.885488  -0.088369  15.304179   0.379866   0.130637  -0.007699 
Mo   5.568569  -0.072134  16.754131   1.423094   0.931516  -0.046218 
Mo   8.376095   1.622265  16.705863  -0.363651  -0.261009  -0.068824 
S    7.492315  -0.020056  18.298273  -0.234554   0.020613  -0.305861 
S   10.271880   1.606211  18.308803  -0.628380  -0.126316  -0.059310 
S   10.228393   1.610218  15.091452  -0.133941   0.462220   0.174314 
S    7.405976   0.030693  15.074912  -0.205082   0.074728   0.459572 
Mo  11.143413   0.026400  16.666692  -0.508077  -0.133175  -0.243949 
Mo  13.986628   1.624092  16.751743  -1.363614  -0.741203  -0.698123 
S   12.909308   0.021336  18.272062   0.727678  -0.142755   0.347924 
S   15.760858   1.543828  18.401977   0.380334   0.421501  -0.097715 
S   15.793359   1.529270  15.128827   0.530222   0.673379   0.631434 
S   13.009777   0.013222  15.122468   0.187303   0.547663  -0.369725 
Mo  16.744711  -0.005593  16.797103  -0.909993  -0.221701   0.363774 
Mo  19.501647   1.575581  16.868007  -0.905166   0.800573  -0.443530 
S   18.553306  -0.045841  18.448594  -0.217331   0.350847   0.025494 
S   21.310765   1.633644  18.463854   0.384213  -0.508273  -0.245843 
S   21.351470   1.626908  15.299592  -0.203414  -0.491139  -0.695627 
S   18.554338   0.008640  15.176186   0.427780  -0.099744   0.792525 
Mo  22.204410  -0.030678  16.832395   0.314988   0.002644   0.293305 
Mo  24.979377   1.564650  16.937117   0.787645  -0.103669  -0.662913 
S   24.067024  -0.110924  18.434937  -0.375430   0.242268   0.375888 
S   26.860113   1.534869  18.480071   0.289184   0.497756  -0.251697 
S   26.832608   1.553621  15.265490   0.417436   0.106633   0.878603 
S   24.129921   0.003316  15.298187  -0.525279  -0.307466  -0.303329 
Mo  27.847953  -0.057246  16.888740  -1.525649   1.062143   0.324941 
Mo  30.579188   1.562592  16.935308   0.804856  -0.146096  -0.097419 
S   29.604493   0.067511  18.583879   0.322642  -0.803049  -0.337825 
S   32.511466   1.525470  18.505012  -0.541254   0.118570   0.175224 
S   32.470611   1.563339  15.305290  -0.258993  -0.819770   0.231780 
S   29.650389  -0.030690  15.368909   0.552820   0.179191  -0.815465 
Mo   0.060481   3.058394  16.863054   0.598625   0.569176   0.091061 
Mo   2.771611   4.720054  16.839962   0.678060   0.794876   0.305949 
S    1.908427   3.128640  18.454556   0.184272  -0.395803   0.011948 
S    4.702777   4.750338  18.433851  -0.602873   0.040375  -0.234761 
S    4.570347   4.800319  15.194304   0.000645  -0.631051  -0.126027 
S    1.874564   3.101558  15.251304   0.258932  -0.152617  -0.031379 
Mo   5.573360   3.207800  16.779985   0.151575  -0.410510  -0.735787 
Mo   8.310813   4.782182  16.732075   1.092144   0.103430   0.767466 
S    7.368110   3.164931  18.333982   0.981751   0.140032   0.139754 
S   10.210041   4.844171  18.318418  -0.297994  -0.376184   0.264298 
S   10.187325   4.816854  15.139412  -0.136627  -0.310399   0.015387 
S    7.416427   3.264284  15.122168  -0.275586  -0.725374   0.039449 
Mo  11.111156   3.240714  16.746458   0.448503  -0.574473  -0.390542 
Mo  13.963725   4.770280  16.715280  -0.416798   1.042104   0.161237 
S   13.027708   3.225031  18.291638  -0.269282  -0.003457   0.496097 
S   15.794868   4.832840  18.367838   0.114130  -0.184592  -0.211260 
S   15.807157   4.706416  15.191882   0.427360   0.487174  -0.339000 
S   12.918139   3.224407  15.153510   0.781377  -0.263173  -0.143320 
Mo  16.723185   3.174652  16.799316   0.162734  -0.332296   0.278048 
Mo  19.537187   4.797091  16.786292  -1.269881   0.707844  -0.007107 
S   18.587586   3.315503  18.460146  -0.359960  -1.114454  -0.782938 
S   21.250253   4.796600  18.468445   0.974432   0.212987  -0.379691 
S   21.344582   4.726133  15.255587   0.591232   0.714794  -0.760336 
S   18.563218   3.223945  15.189626   0.323096  -0.629510   0.673300 
Mo  22.271641   3.217429  16.836271  -0.581291  -0.524802   0.774902 
Mo  25.049752   4.750000  16.868246   0.903856   0.077988  -0.115922 
S   24.026301   3.214639  18.449724   0.591684  -0.105030   0.607678 
S   26.983719   4.712586  18.460997  -0.865237   0.647022   0.016331 
S   26.943739   4.771496  15.277659  -0.287034  -0.087365  -0.200522 
S   24.140106   3.103956  15.259286  -0.067705   0.559603   0.195484 
Mo  27.848389   3.186213  16.871837   0.196724  -1.348966  -0.172745 
Mo  30.683982   4.672646  16.902112  -0.985734   1.084241   0.453424 
S   29.683247   3.128636  18.546043  -0.048968   0.322798  -0.485834 
S   32.516423   4.674957  18.467811  -0.248957   0.186421   0.710399 
S   32.530439   4.712661  15.316509  -0.225024   0.167194  -0.124890 
S   29.736423   3.134891  15.280789  -0.390827  -0.065926   0.188294 
Mo   0.052707   6.312570  16.915302   0.290304  -0.416791  -0.394247 
Mo   2.777529   7.957623  16.851489   0.774734  -0.575990  -0.208096 
S    1.933049   6.330824  18.504876  -0.132783   0.010085  -0.534522 
S    4.678018   7.943625  18.392037   0.096767  -0.375833  -0.122958 
S    4.593406   7.886268  15.164548  -0.181449  -0.233907   0.260304 
S    1.853067   6.385517  15.267995  -0.147768  -0.508464   0.017678 
Mo   5.559868   6.293034  16.781525   0.432941   1.646912   0.044658 
Mo   8.441119   7.883761  16.687215  -0.192714   0.548129  -0.284213 
S    7.487924   6.437812  18.335521  -0.401253  -0.785565   0.186791 
S   10.289649   8.007180  18.328947  -0.215582  -0.080908  -0.336334 
S   10.267197   7.825151  15.079753  -0.167752   1.086890  -0.122296 
S    7.453952   6.352181  15.154312  -0.761748  -0.300912  -0.477745 
Mo  11.166797   6.373745  16.730464   0.678959  -0.143636  -0.070576 
Mo  13.888501   7.976488  16.592648   0.673065   0.174230   0.135797 
S   13.051436   6.406989  18.306259  -0.017106  -0.043397  -0.461810 
S   15.729204   8.074794  18.195427   0.296396  -0.370658   0.171140 
S   15.802429   7.935592  15.045566   0.074072  -0.176930   0.263846 
S   13.018951   6.348599  15.055726  -0.181000  -0.412739   0.412325 
Mo  16.762263   6.393775  16.751309  -0.745990  -0.054375  -0.785549 
Mo  19.544964   8.015463  16.679751   0.057551   0.091532   0.800923 
S   18.618344   6.497139  18.314861  -0.207298  -0.289323   0.107442 
S   21.402024   8.012224  18.385879  -0.622472  -0.369016   0.030350 
S   21.447216   7.988613  15.234830   0.472935  -0.010068  -0.274115 
S   18.597285   6.394489  15.111419   0.202944  -0.366082   0.397687 
Mo  22.326927   6.348014  16.834238  -0.685312   0.202058  -0.124255 
Mo  25.068407   7.960677  16.804558   0.719875   0.202225   0.719868 
S   24.151692   6.409572  18.411838  -0.021580  -0.499880   0.444381 
S   26.868139   7.947736  18.464259   0.468074  -0.234912  -0.264363 
S   26.977295   8.027358  15.285765   0.085503  -0.302417  -0.077574 
S   24.205180   6.340134  15.243283  -0.474225  -0.097208  -0.239702 
Mo  27.868773   6.341896  16.846339  -0.111124   0.326778   0.491832 
Mo  30.586968   7.963939  16.946009   0.736555  -0.436074   0.544170 
S   29.641872   6.325465  18.523068   0.544896  -0.158441  -0.636014 
S   32.513499   7.903796  18.546030  -0.657589   0.651841  -0.314272 
S   32.405523   7.891139  15.345350   0.312424   0.525706  -0.019542 
S   29.817683   6.322227  15.309047  -0.647456   0.061692   0.199283 
Mo   0.046463   9.516908  16.861104   0.031826  -0.012951   0.241539 
Mo   2.823635  11.123579  16.842163   0.034250  -0.122960  -0.114666 
S    1.913192   9.512018  18.454282  -0.224670   0.503386   0.060133 
S    4.710370  11.059075  18.372206   0.139951   0.198822  -0.045175 
S    4.616472  11.108231  15.157872  -0.187296  -0.278076   0.085146 
S    1.890601   9.568487  15.251531  -0.310092  -0.229177  -0.107397 
Mo   5.560165   9.452174  16.714673   0.577410   0.566115  -0.111975 
Mo   8.340245  11.080396  16.627734   0.577313   0.021821   0.287192 
S    7.506006   9.441198  18.194037  -0.442973   0.636776   0.918681 
S   10.271988  11.204280  18.200219  -0.691992  -0.323230   0.245506 
S   10.155480  11.118523  15.012442   0.284335   0.075557   0.146174 
S    7.415699   9.413086  15.057723  -0.034366   0.262580   0.325150 
Mo  11.109271   9.557545  16.641709   0.756413  -0.084438  -0.590067 
Mo  13.959855  11.135947  16.623391  -0.173256   0.157556  -0.842486 
S   13.013584   9.565880  18.181834  -0.236585   0.048623   0.349783 
S   15.846653  11.180894  18.195666  -0.202621  -0.229855   0.089911 
S   15.784412  11.193397  15.028364   0.323125  -0.269752  -0.397567 
S   12.941123   9.593003  14.978658   0.203842  -0.242994   0.554218 
Mo  16.748663   9.589186  16.580800  -0.091921  -0.081772   0.687888 
Mo  19.522821  11.154015  16.707725   0.996270   0.274974  -0.544082 
S   18.593029   9.636466  18.266778  -0.513955  -0.725972  -0.009640 
S   21.388948  11.237840  18.404971  -0.315033  -0.310183  -0.441544 
S   21.472183  11.186161  15.194464  -0.028189  -0.539252   0.300705 
S   18.609204   9.540623  15.027291   0.421091   0.444351   0.241496 
Mo  22.378113   9.574942  16.872293  -0.573389   0.702392  -1.214273 
Mo  25.091958  11.174022  16.894848   0.148677  -0.363669  -0.154437 
S   24.164895   9.538735  18.478889   0.254673   0.199620  -0.143248 
S   26.951204  11.200295  18.486787  -0.251562  -0.332005   0.386103 
S   26.948441  11.228865  15.360623   0.406984  -0.470140  -0.365021 
S   24.239564   9.576599  15.246331  -0.484084   0.308147   0.016253 
Mo  27.899741   9.572959  16.943443  -0.885969   0.346919  -0.827001 
Mo  30.637163  11.157901  16.924897   0.069186   0.473995   0.182485 
S   29.657797   9.594685  18.553012   0.649015  -0.207488  -0.026738 
S   32.532304  11.179344  18.514793  -0.617705  -0.444244  -0.020694 
S   32.476977  11.185840  15.303858  -0.247699  -0.444182  -0.020415 
S   29.739339   9.546923  15.302813  -0.289672   0.257873   0.373282 
Mo   0.009150  12.727830  16.878588   0.684688   0.759865  -0.188463 
Mo   2.826476  14.356983  16.826868  -0.231911  -0.151937  -0.213131 
S    1.928525  12.753052  18.402505  -0.167367  -0.010824   0.565870 
S    4.677128  14.357850  18.302067   0.947616   0.024576   0.327279 
S    4.632877  14.325070  15.148534  -0.002886  -0.055501   0.167083 
S    1.858907  12.743109  15.301900  -0.008577  -0.068377  -0.551606 
Mo   5.560988  12.674348  16.735109   0.159627   0.507426  -0.334576 
Mo   8.385510  14.264836  16.592731  -0.868482   0.563217  -0.070248 
S    7.438488  12.677895  18.226059   0.383013   0.081309   0.441337 
S   10.178422  14.318863  18.176284   0.533896   0.259498   0.153066 
S   10.176985  14.307003  14.974761   0.259411   0.101968  -0.185568 
S    7.394738  12.634928  15.089890  -0.470604   0.342793  -0.540486 
Mo  11.160551  12.758154  16.590935  -0.554556  -0.284908  -0.285158 
Mo  13.961572  14.337744  16.659827  -0.107063  -0.068163  -0.870569 
S   13.027075  12.698242  18.152324  -0.191685   0.268771   0.935394 
S   15.769036  14.334465  18.275038   0.483810  -0.064694  -0.462815 
S   15.805568  14.355932  15.024596  -0.155794  -0.396290  -0.132997 
S   13.002243  12.772768  15.057363   0.462393  -0.195640  -0.475052 
Mo  16.776215  12.754759  16.600448  -1.092224   0.456220   0.629954 
Mo  19.490546  14.367329  16.608083   0.609997  -0.167456   0.569001 
S   18.600441  12.803110  18.202883  -0.180556  -0.109382   0.593622 
S   21.305232  14.413289  18.317804  -0.135444  -0.121395  -0.392289 
S   21.410362  14.334506  15.114563   0.220591   0.477738   0.132657 
S   18.626132  12.700316  15.072668   0.128598   0.134505  -0.674747 
Mo  22.349938  12.792901  16.788301  -0.533072   0.379863  -0.226783 
Mo  25.151927  14.344901  16.866336  -1.214467   0.746114  -0.675729 
S   24.157118  12.815164  18.400065  -0.167580  -0.323289   0.790779 
S   26.889537  14.353812  18.545172   0.479240   0.418705  -0.192784 
S   27.013009  14.436440  15.321401  -0.032870  -0.467433  -0.161921 
S   24.231903  12.742547  15.220144   0.089563   0.177880   0.339225 
Mo  27.877593  12.799694  16.935729   0.312152   0.479980  -0.301721 
Mo  30.586529  14.455637  16.877692   0.708319  -0.786195   1.489956 
S   29.716229  12.809405  18.541220   0.200489   0.055054  -0.536334 
S   32.458187  14.431871  18.456531   0.016096  -0.038040  -0.017712 
S   32.447729  14.413148  15.295162  -0.025013  -0.203162  -0.162238 
S   29.763820  12.834879  15.321042  -0.624729  -0.611551   0.070640 
Mo   0.023858  16.009506  16.801443   0.685644  -0.422263   0.513861 
Mo   2.857168  17.540372  16.814200   0.404411  -0.006178   0.398772 
S    1.885228  15.971465  18.421593   0.154141  -0.109719  -0.128814 
S    4.774850  17.549593  18.336060   0.055030   0.106965  -0.340433 
S    4.613664  17.543287  15.134441   0.494083   0.425274   0.169382 
S    1.960069  15.920596  15.259977  -0.938986   0.369519  -0.635774 
Mo   5.654363  15.951885  16.668099  -1.115985  -0.398246   0.405129 
Mo   8.373817  17.549804  16.571296   0.152154   0.498526   0.115587 
S    7.532107  15.923392  18.159859  -0.040441  -0.067679   0.524033 
S   10.218535  17.528422  18.121940   0.039420   0.177419   0.501015 
S   10.255220  17.594966  14.983130  -0.296920  -0.170302  -0.042781 
S    7.386167  15.921038  15.015088   0.559854  -0.131394  -0.132344 
Mo  11.118160  15.922004  16.558833   0.280402  -0.104550  -0.081359 
Mo  13.903453  17.511603  16.595895  -0.532109   1.303624   0.220382 
S   12.947728  15.903908  18.175227  -0.028941   0.349978   0.378148 
S   15.680039  17.528654  18.200590   0.667052  -0.156876   0.008461 
S   15.756952  17.519607  14.989764   0.269601   0.338179   0.503528 
S   13.038546  15.932673  15.042871  -0.308263  -0.404027  -0.479466 
Mo  16.676705  15.904691  16.607261  -0.064413   1.086074   0.567496 
Mo  19.463088  17.531298  16.641522   0.670789   1.174209   0.796393 
S   18.505504  15.928183  18.180839   0.088934   0.032106   0.533867 
S   21.282086  17.584322  18.300080  -0.269936   0.052298   0.052255 
S   21.433832  17.647017  15.119886  -0.640754  -0.562187  -0.367600 
S   18.552594  15.980946  15.064539   0.041808  -0.306114  -0.798535 
Mo  22.259374  16.021380  16.740476   0.106805  -1.155597  -0.301333 
Mo  25.022759  17.533646  16.898454   0.235105   1.018755   0.129607 
S   24.027338  15.906796  18.402648   0.317033   0.225109   0.224724 
S   26.845581  17.652818  18.527759   0.059000  -0.598747   0.123002 
S   26.913651  17.622612  15.387443   0.384788   0.241136   0.094996 
S   24.187343  15.948023  15.242425   0.096509  -0.071057   0.068908 
Mo  27.860627  15.996104  16.953285  -0.100080   0.426150   0.536944 
Mo  30.601187  17.635127  16.943682   0.287864  -0.213170   0.687411 
S   29.688856  16.013264  18.599991   0.084377   0.081982  -0.828639 
S   32.476886  17.589658  18.515097   0.036165   0.077892  -0.322757 
S   32.449623  17.683121  15.254771  -0.260554  -0.459186   0.448445 
S   29.709951  16.014987  15.320978  -0.434323   0.665367  -0.040099 
Mo   0.095733  19.128262  16.880910   0.021988   0.677220   0.221830 
Mo   2.899564  20.773122  16.737720  -0.293800  -0.208882   0.881437 
S    2.010843  19.127871  18.453825  -0.078513   0.546182  -0.655694 
S    4.773544  20.820536  18.349703  -0.092094  -0.179843  -0.425859 
S    4.740443  20.820038  15.128801  -0.390106  -0.093057  -0.032121 
S    1.942157  19.107482  15.238370  -0.370051   0.487072  -0.097315 
Mo   5.640999  19.205718  16.715164  -0.271322  -0.487946   0.001424 
Mo   8.468898  20.813842  16.563544  -0.915106   0.282045   0.751539 
S    7.499416  19.183198  18.269645   0.579498  -0.003353  -0.842938 
S   10.273627  20.794556  18.199954  -0.111154   0.227917  -0.130740 
S   10.302089  20.828572  14.954917  -0.237906   0.010036   0.350718 
S    7.445785  19.242154  15.079066  -0.078684  -0.534940  -0.541924 
Mo  11.163514  19.191647  16.609144  -0.529227  -0.202256  -0.544170 
Mo  13.866290  20.792470  16.645668   0.531050  -0.256706   0.636304 
S   12.908049  19.146468  18.249283   0.737643  -0.107010  -0.436581 
S   15.743163  20.726742  18.334995  -0.464163  -0.101721  -0.934993 
S   15.734110  20.820649  15.087970   0.110864  -0.166558   0.056611 
S   12.964306  19.216737  15.006524   0.540559  -0.526951   0.295856 
Mo  16.678269  19.158801  16.652998  -0.452330   0.069203   0.025780 
Mo  19.466688  20.787103  16.769893   0.133847   0.743299   0.157523 
S   18.496132  19.147529  18.282591   0.147631  -0.388855  -0.114789 
S   21.294332  20.801501  18.333406   0.476257  -0.209954   0.131183 
S   21.388256  20.808158  15.191424  -0.235170   0.260848   0.048710 
S   18.629466  19.273094  15.169009  -0.705920  -0.720508  -1.010379 
Mo  22.285840  19.167736  16.748113  -0.598486   0.725968   0.851361 
Mo  24.956533  20.860336  16.849213   1.455225  -0.923405   0.377478 
S   23.998766  19.147992  18.472229   0.537843   0.410791  -0.565467 
S   26.825954  20.911681  18.459316  -0.245298   0.069489   0.665101 
S   26.955274  20.837594  15.356162  -0.484701   0.026702  -0.174877 
S   24.203472  19.188671  15.283382  -0.184164  -0.305762  -0.513358 
Mo  27.806258  19.286943  17.024262   0.240766  -0.812293  -0.734145 
Mo  30.660350  20.857736  16.927630  -0.241900  -0.155177   0.694412 
S   29.711032  19.312767  18.605939  -0.063246  -0.353383  -0.557110 
S   32.492318  20.745631  18.552562   0.346059   0.195424  -0.278582 
S   32.502234  20.800545  15.351253   0.031808  -0.057014  -0.200442 
S   29.668803  19.247909  15.461666  -0.186498   0.059378  -1.034329 
Mo   0.079478  22.344576  16.924663   0.183767   0.159746  -0.490608 
Mo   2.889759  23.963358  16.871389  -0.170147   0.181828  -0.593496 
S    1.983869  22.336268  18.393417   0.134073  -0.265186   0.516038 
S    4.793849  23.985438  18.393539  -0.035270  -0.426823  -0.029825 
S    4.639425  24.038219  15.174210   0.122162  -0.538695   0.148980 
S    1.883169  22.419958  15.218728   0.125743  -0.288840   0.492482 
Mo   5.685410  22.398890  16.721760  -0.671281   0.443974  -0.471446 
Mo   8.365481  24.057954  16.627294   0.331283  -0.180440  -0.169688 
S    7.564495  22.400314  18.208403   0.172671  -0.102101   0.109793 
S   10.198901  24.088105  18.233171   0.243753  -0.443772  -0.200098 
S   10.191314  24.101695  15.027840   0.341760  -0.053097   0.194335 
S    7.419706  22.451121  14.957498   0.434084  -0.206674   1.016211 
Mo  11.147974  22.448837  16.597074  -0.756510   0.012663   0.346540 
Mo  13.896281  24.062175  16.683376  -0.304474  -0.494732   0.172630 
S   12.916853  22.398849  18.210558   0.319961   0.237573   0.352516 
S   15.652668  23.933750  18.294292   0.799378   0.777781   0.388962 
S   15.816593  24.114610  15.200168   0.007623  -0.635405  -0.429516 
S   12.979365  22.449394  15.068168   0.542927   0.045125  -0.338516 
Mo  16.640941  22.369992  16.735815   0.061780   0.109448   0.554457 
Mo  19.403587  24.014841  16.854071   1.010797  -0.633789  -0.702710 
S   18.486268  22.347047  18.426662  -0.229578   0.093632  -0.684277 
S   21.352628  23.978025  18.416234  -0.578355   0.246519  -0.020480 
S   21.253871  23.972895  15.221871   0.233059   0.596758   0.400604 
S   18.471448  22.406893  15.198183   0.663708   0.229681   0.089246 
Mo  22.302021  22.439647  16.805359  -1.059075  -0.664081  -0.331825 
Mo  25.008379  23.967655  16.836122   1.122980   0.686440  -0.097799 
S   24.082692  22.416513  18.444274  -0.143581   0.078428   0.380568 
S   26.861773  24.078161  18.492895   0.140399  -0.607581  -0.390313 
S   26.934269  24.043282  15.261949  -0.061119  -0.447409   0.402050 
S   24.112089  22.413742  15.181340   0.068802   0.097647   0.134325 
Mo  27.882131  22.455687  16.909330  -1.089494   0.302490   0.032990 
Mo  30.595719  24.087555  16.961872   1.177226  -0.501305   0.039209 
S   29.717388  22.462460  18.481656  -0.129561  -0.115704   0.671709 
S   32.546570  24.002635  18.543331  -0.589558  -0.029066  -0.054973 
S   32.487512  23.969640  15.356933  -0.179328   0.462493   0.381035 
S   29.716895  22.448176  15.336062   0.309351   0.185561  -0.169935 
