288
Lattice="33.327215 0.034987 0.030857 0.026922 25.658996 -0.000664 0.027082 9e-05 30.502484 " PBC="1 1 1" Properties="species:S:1:pos:R:3:force:R:3" Energy=" -5.285690"
Mo  -0.013460  -0.049007  16.884092   0.433857  -0.113375   0.024411 
Mo   2.821349   1.549010  16.778557   0.121834  -0.208523  -0.923057 
S    1.975150  -0.003839  18.399405  -0.683253  -0.411539   0.169422 
S    4.691331   1.518351  18.324326   0.292354   0.073700  -0.297197 
S    4.654760   1.503198  15.071427  -0.212902  -0.137795   0.552523 
S    1.767252  -0.057376  15.276400   0.341805   0.253505  -0.720572 
Mo   5.633683  -0.083139  16.708403  -1.316415  -0.667622   0.295866 
Mo   8.338220   1.473249  16.677414   0.237076  -0.053867   0.486089 
S    7.403764  -0.150741  18.339935   0.531190   0.409117  -0.236594 
S   10.193568   1.527968  18.263725   0.194487   0.305813  -0.325456 
S   10.175029   1.418199  15.088571  -0.063149   0.332170  -0.611726 
S    7.470974  -0.199539  15.139128  -0.337333   0.678284  -0.669691 
Mo  11.104724  -0.104600  16.685525   0.892921  -0.104966   0.566038 
Mo  13.912393   1.504802  16.607447  -0.014696   0.619939   0.812258 
S   12.949388  -0.031499  18.276862   0.537061  -0.121362  -0.338647 
S   15.777912   1.540864  18.262617  -0.441259  -0.116834   0.089443 
S   15.802072   1.519695  15.073241   0.186327   0.306494   0.253892 
S   12.988913  -0.149791  15.098560  -0.236485   0.375452  -0.477995 
Mo  16.745907  -0.063789  16.702973   0.095833   0.127183   0.120183 
Mo  19.510458   1.568677  16.776917   0.401602  -0.503222  -0.185875 
S   18.643385  -0.038939  18.353671  -0.823017   0.066987  -0.092800 
S   21.362271   1.630162  18.451199  -0.731217  -0.699681  -0.224972 
S   21.408042   1.553182  15.212743  -0.333469   0.072307   0.242324 
S   18.605948  -0.105329  15.133244   0.322607   0.350524   0.409862 
Mo  22.255109  -0.029134  16.865094   0.689976  -0.398232  -0.024883 
Mo  25.050557   1.498417  16.968293  -0.995731   1.058822  -0.394098 
S   24.069960  -0.106093  18.543182   0.015629   0.375617  -0.090565 
S   26.894773   1.568527  18.481008  -0.045418   0.280302   1.016942 
S   26.875443   1.550815  15.395234   0.086300  -0.172058  -0.665765 
S   24.173404  -0.095923  15.343943  -0.139124   0.048769   0.018866 
Mo  27.768537  -0.059993  16.975799   1.703630  -0.269630  -0.004333 
Mo  30.508386   1.559294  16.958824   0.594562   0.171918  -0.181822 
S   29.678308  -0.017931  18.645128  -0.395064  -0.138901  -0.863856 
S   32.409140   1.559776  18.510196  -0.159394   0.195026   0.141695 
S   32.339011   1.548286  15.289492  -0.266856  -0.116735   0.390905 
S   29.606445  -0.081500  15.357792   0.134677  -0.041024   0.596095 
Mo  -0.028125   3.089770  16.846556   0.212706   0.631666   0.060136 
Mo   2.818868   4.762555  16.798098  -0.015338  -1.090037  -0.749245 
S    1.902807   3.122126  18.343802   0.005615   0.140151   0.483927 
S    4.746765   4.685170  18.371265  -0.495998   0.036580  -0.629351 
S    4.656887   4.699090  15.124359  -0.286036   0.601003   0.418874 
S    1.758798   3.126980  15.205563   0.747139   0.163368   0.233129 
Mo   5.591516   3.084009  16.662518   0.250489   0.407654   0.493449 
Mo   8.284607   4.743245  16.678754   1.015876  -0.503745  -0.778089 
S    7.432297   3.072631  18.277882   0.040315   0.354603  -0.208295 
S   10.212477   4.728031  18.195009  -0.109176  -0.305926   0.025545 
S   10.157338   4.714843  15.010295  -0.281784   0.291504   0.273707 
S    7.470167   3.087159  15.049327  -0.471103   0.072300   0.461691 
Mo  11.110831   3.115102  16.560124  -0.458846  -0.286582   1.265430 
Mo  13.918631   4.796272  16.599775  -0.442584  -0.956347  -0.235741 
S   12.968467   3.176118  18.161466  -0.000303  -0.365548  -0.127699 
S   15.602935   4.779057  18.340008   0.985276  -0.202526  -0.556416 
S   15.802625   4.804043  15.093831   0.117721  -0.277073   0.055579 
S   12.932347   3.119941  15.005991   0.759295   0.038672  -0.054876 
Mo  16.657210   3.162162  16.718074   0.417421   0.212694  -0.109399 
Mo  19.453183   4.776392  16.754253   0.312988   0.107715  -0.154253 
S   18.564010   3.202398  18.305495  -0.828786  -0.366791   0.448346 
S   21.201886   4.726985  18.467725   0.588150   0.434025  -0.640655 
S   21.316158   4.752772  15.238084   0.473559   0.077510  -0.209016 
S   18.599889   3.148562  15.194074  -0.534852  -0.080266  -0.519908 
Mo  22.233890   3.169123  16.850658   0.198202   0.007202  -0.428217 
Mo  25.028904   4.801515  16.988708  -1.039438  -0.277532  -0.487386 
S   23.996098   3.146429  18.502266   0.734702   0.023946  -0.035604 
S   26.847048   4.811300  18.600328   0.214760  -0.164735  -0.538991 
S   26.797001   4.757957  15.368964   0.494636   0.510566  -0.107026 
S   24.137442   3.094890  15.284091   0.233086   0.544866   1.055263 
Mo  27.805280   3.188571  16.902297  -0.676731   0.295517   0.926076 
Mo  30.573534   4.771617  16.942008   0.194932  -0.128802  -0.509025 
S   29.590778   3.239324  18.521878   0.352611  -0.453218   0.293356 
S   32.442653   4.777712  18.501599   0.035567  -0.203858   0.082922 
S   32.420797   4.736603  15.263324  -0.222571   0.295948   0.726319 
S   29.656537   3.191084  15.344668  -0.060690  -0.269736  -0.241937 
Mo  -0.000044   6.349829  16.881284   0.440558  -0.809615  -0.694373 
Mo   2.817225   7.941660  16.850655  -1.000650   0.320397  -0.672199 
S    1.908456   6.271819  18.409809   0.043150   0.648349   0.452449 
S    4.654244   7.982101  18.404003   0.476361  -0.145160   0.038457 
S    4.546390   7.934348  15.190781   0.491229   0.156397  -0.286727 
S    1.807259   6.367133  15.269250   0.324846  -0.113409  -0.218737 
Mo   5.522802   6.382030  16.773733   0.856535  -1.036017  -0.726665 
Mo   8.400628   7.914130  16.673366  -0.511286   0.116689   0.169740 
S    7.439775   6.320883  18.279254   0.002893   0.342665   0.247632 
S   10.299577   7.956515  18.231656  -0.230166  -0.060415   0.002907 
S   10.207760   7.967455  15.117367   0.464212   0.085341  -0.653941 
S    7.369794   6.388057  15.069746  -0.289548  -0.416621   0.644503 
Mo  11.168810   6.303612  16.630263  -0.874596   0.801281  -0.393135 
Mo  13.860946   8.023937  16.655839   0.054592  -0.126330  -0.436698 
S   12.979735   6.321685  18.174640   0.069869   0.581292   0.739740 
S   15.677646   8.011182  18.265136   0.128348   0.094853   0.456947 
S   15.765523   7.943323  15.117660   0.013343   0.234357   0.151400 
S   12.966640   6.387473  15.036950   0.309713   0.136981  -0.351086 
Mo  16.657690   6.363968  16.771383   0.317550   0.081068  -0.535490 
Mo  19.500093   7.989975  16.715298  -0.508856   0.197375  -0.918517 
S   18.615440   6.408787  18.283414  -1.059533   0.028770   0.726735 
S   21.289304   8.006232  18.364759  -0.088429   0.025911   0.042727 
S   21.398876   7.919509  15.181834  -0.203277   0.297499   0.149553 
S   18.512056   6.347553  15.134273   0.196605   0.352269   0.254476 
Mo  22.236185   6.341941  16.851700   0.085761   0.329503  -0.088736 
Mo  24.962251   8.026152  16.898152   0.610389  -0.319078  -0.403766 
S   24.010673   6.516422  18.525899   0.144806  -1.037603  -0.254534 
S   26.778763   8.060683  18.514879   0.486805  -0.151625  -0.147808 
S   26.884777   7.992488  15.366246  -0.208188   0.018240  -0.372645 
S   24.158935   6.375242  15.276397  -0.396725  -0.365436   0.694806 
Mo  27.772207   6.401796  16.959116  -0.161075  -0.580331  -0.222571 
Mo  30.585292   7.927016  16.915110  -0.252014   1.209552  -0.531810 
S   29.643784   6.390089  18.477901   0.036010  -0.172118   0.912199 
S   32.507262   7.983145  18.498495  -0.680175   0.210853  -0.062672 
S   32.384845   7.908592  15.264742   0.147442   0.546080   0.383951 
S   29.638780   6.298014  15.337165  -0.285304   0.633500  -0.057976 
Mo   0.014999   9.548695  16.818663  -0.123007  -0.200434   0.203237 
Mo   2.810104  11.170509  16.830687  -0.265956   0.077769  -0.632803 
S    1.914370   9.549731  18.407371  -0.325547   0.222857   0.188953 
S    4.667784  11.134146  18.358261   0.621003  -0.068675  -0.043455 
S    4.654794  11.170161  15.240686  -0.056424  -0.251032  -0.507943 
S    1.853823   9.593903  15.210430   0.149450  -0.362795   0.461727 
Mo   5.619953   9.501239  16.735576  -0.262975   0.542466   0.610111 
Mo   8.336915  11.157207  16.730402   0.340917   0.123481   0.338417 
S    7.549648   9.450652  18.322781  -0.593904   0.422548  -0.277843 
S   10.261761  11.309852  18.286887  -0.349800  -0.663040  -0.260300 
S   10.144615  11.255756  15.110877   0.158300   0.165913  -0.261804 
S    7.432819   9.518112  15.069360   0.073986   0.226592   0.677352 
Mo  11.106789   9.665523  16.649882   0.682141  -0.611144   0.499533 
Mo  13.919158  11.227943  16.660920   0.635617   0.248620   0.458512 
S   12.971736   9.654260  18.251519  -0.161115  -0.239380   0.001977 
S   15.809224  11.269465  18.288255  -0.456914  -0.327732  -0.219946 
S   15.776440  11.201260  15.083070   0.148200   0.179752   0.174600 
S   12.976986   9.695267  15.052783  -0.192413  -0.559633   0.127586 
Mo  16.663062   9.603100  16.702228   0.335464  -0.018646  -0.372749 
Mo  19.480892  11.239537  16.695465  -0.492855  -0.020488   0.190397 
S   18.543559   9.593726  18.245072  -0.066507   0.241945   0.499397 
S   21.341021  11.205780  18.354913  -0.739893   0.383739  -0.007728 
S   21.350213  11.247615  15.211680   0.182227   0.018668  -0.592140 
S   18.529999   9.624212  15.096921   0.316730  -0.271156   0.332413 
Mo  22.230270   9.615459  16.789451   0.593140  -0.543540  -0.229533 
Mo  24.987295  11.164893  16.832727  -0.378066   0.977475   0.705524 
S   24.046185   9.619435  18.455480  -0.374197   0.179245  -0.004637 
S   26.817415  11.225638  18.535390  -0.220996  -0.342860  -0.720881 
S   26.826695  11.224951  15.304857   0.437799  -0.186973  -0.285774 
S   24.114008   9.550218  15.223679  -0.184398   0.346964   0.022037 
Mo  27.779148   9.627712  16.894023  -0.433291  -0.146867   0.663716 
Mo  30.520627  11.218860  16.904118   0.300481  -0.916627   0.258525 
S   29.623913   9.575815  18.494220   0.214783   0.025389  -0.236457 
S   32.440084  11.178354  18.503843  -0.275832  -0.344953  -0.326778 
S   32.352981  11.179533  15.295298   0.243681   0.163563   0.177488 
S   29.590395   9.589093  15.278267   0.557692  -0.143412   0.582463 
Mo   0.021423  12.727610  16.889244   0.608412  -0.315964  -0.135794 
Mo   2.845237  14.371493  16.766333  -0.292931   0.076328   1.364576 
S    1.979408  12.788965  18.451343  -0.569566  -0.051000  -0.420954 
S    4.644603  14.413673  18.355132   0.826106  -0.020702  -0.087452 
S    4.670717  14.398038  15.173576   0.146931  -0.142542  -0.252669 
S    1.841063  12.843462  15.235337   0.012743  -1.092844   0.023138 
Mo   5.583597  12.782042  16.771913   0.412043   0.257715   0.362965 
Mo   8.378339  14.412167  16.777269   0.395893  -0.352908  -0.283899 
S    7.429398  12.755325  18.391701   0.234507   0.179495  -0.647261 
S   10.297343  14.457900  18.362891  -0.354510  -0.461774  -0.741731 
S   10.213352  14.476076  15.097644  -0.180952  -0.354041   0.257078 
S    7.454659  12.777549  15.160583  -0.315015   0.325702   0.265729 
Mo  11.184011  12.858313  16.659409  -0.221941   0.261347   0.571376 
Mo  14.028398  14.450944  16.690332  -1.008854  -1.078571  -0.156779 
S   13.069031  12.818452  18.299681  -0.300288   0.312229  -0.626853 
S   15.864893  14.423533  18.280218  -0.474851   0.141493   0.494659 
S   15.843674  14.517683  15.084682  -0.173301  -0.444979  -0.160782 
S   13.043549  12.821553  15.061669   0.005276   0.557351   0.308166 
Mo  16.707447  12.860988  16.681251   0.406386  -0.421427  -0.621237 
Mo  19.521365  14.422380  16.759392  -1.143666   0.036475  -0.267500 
S   18.531720  12.808248  18.310173   0.165552   0.050963  -0.147297 
S   21.254734  14.461088  18.449825   0.201020  -0.278579  -0.246142 
S   21.343896  14.485844  15.203507   0.074511  -0.179379  -0.450490 
S   18.538808  12.895559  15.060696   0.524345  -0.475779   0.752440 
Mo  22.216730  12.890405  16.797232   0.021624  -0.714609   0.148588 
Mo  25.031598  14.376844  16.830901  -0.249746   0.117789   0.601094 
S   23.995004  12.854514  18.395742   0.626952  -0.617443   0.174067 
S   26.810852  14.366057  18.559085  -0.002450   0.284569  -0.772208 
S   26.886005  14.411578  15.293095   0.168272  -0.278306  -0.212558 
S   24.073380  12.822472  15.216690   0.255850  -0.201468   0.092650 
Mo  27.748686  12.800813  16.919524  -0.054781   0.139472   0.090379 
Mo  30.524525  14.324454  17.016779   0.868230   0.520629  -1.320848 
S   29.555303  12.763997  18.555275   0.154466  -0.348909   0.129622 
S   32.428541  14.314881  18.510824   0.296336   0.244010   0.441697 
S   32.417778  14.335420  15.365305  -0.457135   0.132785  -0.090752 
S   29.605217  12.824820  15.328356  -0.065592  -0.127022   0.048484 
Mo   0.094555  15.872105  16.878800  -0.661026   0.638655   0.270782 
Mo   2.811284  17.526233  16.870805  -0.322722   0.614986  -0.994402 
S    1.930026  15.926972  18.477099   0.221377  -0.322421  -0.263583 
S    4.718073  17.629171  18.293939   0.109879  -0.189212   1.110492 
S    4.588469  17.650135  15.192446   0.260814  -0.263211  -0.027211 
S    1.900680  15.920625  15.246763  -0.186341   0.536145  -0.326070 
Mo   5.598701  16.031582  16.725133   0.556503  -0.383794   0.283485 
Mo   8.384625  17.658654  16.725680   0.632707  -1.112174  -0.183341 
S    7.507293  16.059036  18.341247  -0.528670  -0.124201  -0.307271 
S   10.279351  17.645951  18.326609  -0.134477  -0.425877  -0.331326 
S   10.295808  17.677849  15.112653  -0.558052  -0.660984   0.108586 
S    7.471603  16.002003  15.113993  -0.126548   0.131137   0.612238 
Mo  11.158574  16.011663  16.699475   0.583918   0.572724   0.563177 
Mo  13.965148  17.648489  16.663072   0.831882  -1.452559   0.904673 
S   13.075739  15.940943  18.313186  -0.394568   0.850404  -0.527096 
S   15.826427  17.597862  18.283869  -0.332798   0.531382   0.272416 
S   15.838065  17.605725  15.077390   0.078881   0.706953   0.340896 
S   13.032090  16.020680  15.118732  -0.099050   0.068487  -0.217842 
Mo  16.725172  16.050052  16.714663   1.145444  -0.312487  -0.310685 
Mo  19.511317  17.642699  16.795011  -0.144497   0.028701  -0.364648 
S   18.559640  15.974815  18.373732  -0.068855   0.481795  -0.526381 
S   21.298909  17.647561  18.443840   0.075208  -0.023054  -0.132967 
S   21.368244  17.621323  15.184338  -0.069129   0.366139   0.347866 
S   18.616259  16.026681  15.108260  -0.023837   0.385102   0.904370 
Mo  22.178317  16.040817  16.837780   1.231633   0.061356   0.307599 
Mo  25.111648  17.555864  16.870197  -1.129663   0.202306   0.452916 
S   24.080175  15.960592  18.410346  -0.119421   0.101257   0.207230 
S   26.890506  17.585357  18.527941   0.071785  -0.404353  -0.119069 
S   26.915634  17.594773  15.292646   0.544196  -0.204637   0.109807 
S   24.089626  15.988467  15.305042   0.144792   0.171587  -0.537015 
Mo  27.796313  15.943270  16.920785   0.275979   0.707741   0.347102 
Mo  30.614603  17.503663  16.959725  -0.019987   0.568840   0.157113 
S   29.647236  15.940009  18.550902  -0.315001   0.155534   0.195275 
S   32.486800  17.504489  18.506048  -0.027231  -0.116224   0.344010 
S   32.492349  17.548090  15.355421  -0.354150  -0.116022   0.093892 
S   29.708709  15.917424  15.358450  -0.345737   0.133358   0.071689 
Mo   0.038685  19.135509  16.948685   0.116129   0.114320  -0.585851 
Mo   2.803679  20.771662  16.770952  -0.208148   0.597276   0.273795 
S    1.939459  19.174327  18.421781   0.125350  -0.013965   0.560215 
S    4.661746  20.815155  18.389968   0.153543  -0.015061  -0.302872 
S    4.585647  20.841118  15.149458   0.305717  -0.492212  -0.209157 
S    1.819232  19.135416  15.281477   0.117135  -0.165469  -0.083079 
Mo   5.593978  19.259912  16.760798  -0.256221  -0.530711  -0.569659 
Mo   8.402624  20.745037  16.674909   0.644277  -0.375413   0.634756 
S    7.453216  19.173433  18.353995   0.157883   0.499661  -0.330675 
S   10.283187  20.732758  18.296283  -0.316678   0.088131   0.151157 
S   10.289726  20.748762  15.116534  -0.211468  -0.108824  -0.264509 
S    7.440412  19.187926  15.142074  -0.349005  -0.016509  -0.605794 
Mo  11.246322  19.182747  16.721024   0.043364   0.420966   0.048022 
Mo  14.002935  20.825703  16.733325  -0.236530  -0.139001  -0.177968 
S   13.124496  19.164538  18.299739  -0.363869   0.512283   0.362483 
S   15.870227  20.833371  18.297108  -0.360684  -0.235753   0.598742 
S   15.831451  20.845800  15.163140   0.300187  -0.267245  -0.498308 
S   13.112276  19.228700  15.139195  -0.456615   0.319671  -0.737150 
Mo  16.784600  19.223563  16.737437  -0.052076   0.085616  -0.478939 
Mo  19.592727  20.875476  16.807520  -0.369434  -0.941970  -0.126126 
S   18.592193  19.267069  18.399605   0.098587  -0.146827  -0.405443 
S   21.389405  20.794148  18.429435  -0.097669   0.063655   0.468833 
S   21.498481  20.830787  15.216093  -0.434522   0.194549   0.188181 
S   18.690922  19.317344  15.178718  -0.248552  -0.436563   0.204026 
Mo  22.294375  19.217037  16.834267   0.138974  -0.732012  -0.169176 
Mo  25.132111  20.759196  16.923404  -0.951318   0.563081   0.349508 
S   24.093840  19.114352  18.453570   0.506575   0.358211   0.206902 
S   26.884939  20.759637  18.583760   0.477099  -0.085201  -0.173957 
S   26.974411  20.791949  15.345169  -0.094211   0.036898   0.111381 
S   24.217634  19.198290  15.325900  -0.124753  -0.116925  -0.558689 
Mo  27.824429  19.164936  16.947564   0.268701   0.309560   0.639158 
Mo  30.686662  20.765591  16.929020  -1.007189  -0.225739   0.436964 
S   29.702396  19.188960  18.576384   0.115793  -0.361372  -0.641671 
S   32.466243  20.778189  18.614497   0.200635  -0.123646  -0.502887 
S   32.501829  20.732718  15.315403  -0.471897   0.101563   0.079371 
S   29.673387  19.153581  15.433661   0.481585  -0.098313  -0.742934 
Mo  -0.005988  22.329166  16.895738   0.482837   0.670776   0.159128 
Mo   2.765442  23.984827  16.779452   0.782919   0.046235   0.319048 
S    1.908136  22.375620  18.380248   0.010955  -0.009216   0.309646 
S    4.678513  23.905454  18.304355   0.374902   0.745273   0.034098 
S    4.669745  23.915238  15.204912  -0.260588   0.552936  -0.420392 
S    1.755389  22.474261  15.208310   0.364901  -1.061021   0.117596 
Mo   5.636551  22.323297  16.730546  -0.215801   0.299697   0.577221 
Mo   8.394316  23.938510  16.736558   0.442638  -0.277202   0.771722 
S    7.564505  22.273654  18.275781  -0.795498   0.529955   0.666270 
S   10.336603  23.972230  18.336831  -0.885099  -0.240184  -0.163811 
S   10.234891  23.898061  15.195819  -0.141826   0.329661  -1.170801 
S    7.472042  22.350675  15.117622  -0.025726   0.072897  -0.221223 
Mo  11.159240  22.338656  16.713099   1.340669   0.309362   0.823217 
Mo  13.974524  23.986245  16.675637  -0.046267   0.200574   0.536916 
S   13.110298  22.423500  18.298293  -0.785943  -0.134872   0.092617 
S   15.843304  24.004866  18.294945  -0.405126   0.266735   0.112686 
S   15.830160  24.001077  15.077598   0.191552  -0.169476   0.434606 
S   13.004967  22.393858  15.087323   0.295536  -0.153526   0.360028 
Mo  16.755639  22.418481  16.739586   0.412857   0.253373  -0.206804 
Mo  19.552679  23.988253  16.791936   0.249863   0.521333   0.582312 
S   18.600722  22.410519  18.380093  -0.126319   0.316204   0.129580 
S   21.446811  24.013874  18.461192  -1.074223   0.001961  -0.011801 
S   21.422214  23.929729  15.269564   0.103255   0.849171  -0.191651 
S   18.636704  22.427634  15.222360   0.048828  -0.080817  -0.689754 
Mo  22.314445  22.400465  16.899370   1.111784  -0.112663  -0.031742 
Mo  25.109367  23.997003  16.982920  -0.496727  -0.488840   0.271069 
S   24.175284  22.362593  18.546750  -0.169138  -0.058896  -0.311872 
S   26.973406  24.024619  18.597726  -0.476154  -0.404234   0.122662 
S   26.927219  23.913763  15.434949   0.120161   0.772678  -0.660395 
S   24.203346  22.427375  15.357519   0.139694  -0.276270   0.039877 
Mo  27.865417  22.380953  17.002814  -0.137183  -0.531292   0.370619 
Mo  30.642658  24.024503  17.014842  -1.212302  -0.470024  -0.733277 
S   29.755940  22.318894  18.542252  -0.077674   0.423114   0.164678 
S   32.520654  24.063937  18.545895  -0.166816  -0.485642   0.138803 
S   32.406151  23.994733  15.366273  -0.115882   0.090533  -0.114064 
S   29.621698  22.348043  15.349060   0.983212   0.494747   0.538291 
