64
Lattice="10.8 0 0 0 10.8 0 0 0 10.8 " PBC="1 1 1" Properties=species:S:1:pos:R:3:force:R:3 Energy="0"
Si    3.763547440600000e-02  -1.800069101800000e-03  -1.816109051200000e-02 -7.32154930e-01  -1.94210006e-01   4.80167791e-01
Si   -3.361680670500000e-02   2.764469313600000e+00   2.650047576100000e+00  1.61592313e+00  -1.36391766e+00   1.11195707e+00
Si    2.664996243600000e+00  -2.699738531600000e-02   2.709584098400000e+00  6.45865244e-01  -7.13747522e-02   6.72122892e-02
Si    2.648249153800000e+00   2.689285697900000e+00  -2.054685166900000e-02  1.32993223e+00   2.09984329e-01   4.07224886e-01
Si    1.412296408900000e+00   1.321191368400000e+00   1.327234269400000e+00 -1.49025018e+00   5.19703307e-01   5.53631516e-01
Si    1.393489253200000e+00   4.083124267500000e+00   4.072818289100000e+00 -7.66926186e-01  -3.12943229e-01  -6.44124747e-01
Si    4.057603545200000e+00   1.351526629900000e+00   4.016425775500000e+00  1.77227924e-01  -4.81123832e-01   1.32160111e-01
Si    4.036097068600000e+00   4.018368859000000e+00   1.388608571500000e+00 -5.26444120e-01  -3.74568387e-01  -4.28253319e-01
Si    5.441221991300000e+00   5.015676180100000e-02   1.549479892500000e-02 -9.28590033e-01  -4.18883943e-01  -5.02678842e-01
Si    5.429657993800000e+00   2.699110517700000e+00   2.682958174000000e+00 -7.16551679e-01   5.30738018e-03   4.87740027e-01
Si    8.119687538799999e+00   7.033659433200000e-03   2.676935928600000e+00 -4.10487603e-01   5.47355410e-01   3.93776440e-01
Si    8.048499753600000e+00   2.683467047200000e+00  -6.573377828300000e-03  3.25718813e-01   5.96341582e-01   9.44026751e-02
Si    6.690744366500000e+00   1.346949689500000e+00   1.371653037400000e+00  1.46378308e+00   1.45888778e-01  -8.34573455e-02
Si    6.749305062400000e+00   4.018026725800000e+00   4.042553891600000e+00 -2.98534048e-02   4.92634912e-01   4.41185477e-01
Si    9.427377419100001e+00   1.387546270100000e+00   4.074994506600000e+00  2.83451122e-01  -3.85345519e-02  -8.94878603e-01
Si    9.522335429700000e+00   4.038831311800000e+00   1.306335505500000e+00 -1.90835774e+00   4.61331263e-01  -2.29574603e-01
Si   -5.759126489100000e-03   5.414169945200000e+00  -1.390881921700000e-02  2.31929849e-01   1.69206193e-01  -5.76510748e-01
Si   -4.916176907000000e-02   8.080700773400000e+00   2.698044935400000e+00  4.27180323e-01  -1.35987745e-01  -2.64301426e-01
Si    2.726028929600000e+00   5.408034864000000e+00   2.696428635800000e+00 -5.23391687e-01   4.55665304e-01  -4.07996589e-02
Si    2.733814372600000e+00   8.079645389800000e+00  -9.769847254399999e-03 -2.13073504e-01   6.50047953e-01  -1.44714761e-01
Si    1.345668984700000e+00   6.767045638400000e+00   1.306176182500000e+00  6.19393430e-02  -2.34673355e-01   7.79207333e-01
Si    1.334256581000000e+00   9.383616836200000e+00   4.049752232800000e+00 -2.39621371e-01   6.06032597e-01   1.11542460e-01
Si    4.020124726400000e+00   6.798406108100000e+00   4.055818578300000e+00  6.69126494e-01  -6.22969560e-01  -2.95721635e-02
Si    4.068000408700000e+00   9.511679161500000e+00   1.311938066800000e+00 -4.03693130e-01  -5.05317359e-01   2.32782600e-01
Si    5.303291434500000e+00   5.361114338700000e+00   3.234439614100000e-02  1.46772247e+00   1.39996396e-01  -4.36082743e-01
Si    5.376679880800000e+00   8.115387493600000e+00   2.650193449400000e+00  4.64792876e-01   1.43871570e-01   4.60381589e-01
Si    8.136913273299999e+00   5.365474478700000e+00   2.727434059200000e+00 -4.36205872e-01   2.12675225e-02  -9.75125353e-01
Si    8.173705472900000e+00   8.097662457300000e+00  -4.189652520600000e-02 -1.36338423e+00  -4.04753127e-02   5.08693525e-01
Si    6.739486452100000e+00   6.737335857800000e+00   1.319595475900000e+00  4.61418309e-01  -2.06211894e-01   1.17774973e-01
Si    6.798297032900000e+00   9.449236195199999e+00   4.024573886600000e+00 -8.01585417e-01  -4.18990926e-03  -1.74658015e-01
Si    9.442222469400001e+00   6.723684693000000e+00   4.057687704400000e+00  3.68964650e-01  -4.16871094e-02   6.31503485e-01
Si    9.420415560300000e+00   9.454142016400001e+00   1.358933401400000e+00  9.77509684e-01   1.34082611e-01  -5.33871514e-01
Si   -1.463657204400000e-02   1.459873526800000e-02   5.371067042800000e+00  7.47106280e-01   1.11507535e-01   4.05367412e-01
Si    6.887873797400000e-02   2.719678947200000e+00   8.153700899400000e+00 -1.08597062e+00  -2.04319119e-01  -4.35031420e-01
Si    2.658651490900000e+00   3.731561130200000e-02   8.117278665500001e+00  6.60996620e-01  -9.23239166e-01   3.50514248e-02
Si    2.724321882400000e+00   2.696909270100000e+00   5.351647375300000e+00 -4.08694637e-02  -5.54538127e-02   6.16992069e-01
Si    1.378848332600000e+00   1.378939730300000e+00   6.765269450400000e+00 -5.12217992e-01  -5.39925567e-02  -7.86701280e-01
Si    1.379801230500000e+00   4.068370258200000e+00   9.466867459400000e+00 -9.69971855e-03   6.53283434e-01  -2.26200441e-01
Si    4.048778792700000e+00   1.354269311200000e+00   9.456424169800000e+00  1.17758284e-01   2.82370224e-01  -7.80823504e-02
Si    4.050736921600000e+00   4.042837333400000e+00   6.730590829400000e+00 -6.16102645e-02  -4.83378114e-01   3.86082789e-01
Si    5.403059141300000e+00  -3.098485123700000e-02   5.401446022100000e+00  2.38474710e-02   1.71511842e-01  -6.59615584e-01
Si    5.429459430800000e+00   2.700677922100000e+00   8.091418187200000e+00 -4.56702160e-01  -2.11628268e-01  -3.35182877e-01
Si    8.072939236500000e+00  -1.376751275100000e-02   8.130680835500000e+00  3.80425363e-01  -3.47736769e-02  -3.64561226e-01
Si    8.072630633799999e+00   2.685280283100000e+00   5.419462703400000e+00  2.47273788e-01   3.46796599e-01   1.49571056e-01
Si    6.746733506600000e+00   1.310673503500000e+00   6.721010534300000e+00 -6.37771917e-02   1.75269398e-01   6.22160244e-01
Si    6.740327412400000e+00   4.098365152400000e+00   9.396107892500000e+00 -3.68432503e-01  -3.85506619e-01   1.23077641e+00
Si    9.436375800400000e+00   1.352471604500000e+00   9.466378087700001e+00  3.19897502e-01   2.22216245e-02  -1.68961418e-01
Si    9.425929046200000e+00   4.043461004700000e+00   6.802250977300000e+00  1.01440705e-01   6.25562749e-02   8.92986586e-02
Si    2.639914827800000e-02   5.374554335300000e+00   5.460716809100000e+00 -1.45377682e-01   5.33277635e-01  -2.06556067e-01
Si   -7.435389771300000e-03   8.053072130000000e+00   8.090936748800001e+00  1.95169133e-01   4.57906516e-01  -1.25252847e-01
Si    2.759398910600000e+00   5.416063174100000e+00   8.100276258899999e+00 -4.54857740e-01  -3.90670197e-01   1.16936523e-01
Si    2.697591827400000e+00   8.095697924400000e+00   5.431356023200000e+00  3.26850527e-01   6.13968196e-01  -1.23399014e-01
Si    1.414530433700000e+00   6.773435718300000e+00   6.777376435400000e+00 -7.08779533e-01  -7.30455793e-01  -1.49593904e-02
Si    1.316167521300000e+00   9.408701943400001e+00   9.443739935700000e+00  6.32307612e-01   9.27487292e-02  -8.24276799e-02
Si    4.074050778700000e+00   6.733797522500000e+00   9.459199862200000e+00 -4.31469887e-01   4.11610488e-02   1.60322071e-01
Si    4.075512443100000e+00   9.457192108799999e+00   6.775706694700000e+00 -7.35608037e-01  -9.08219286e-03   1.92060421e-01
Si    5.368442449600000e+00   5.373870251400000e+00   5.426355099800000e+00  2.10220635e-01   4.68900887e-01  -9.82999838e-01
Si    5.379840771400000e+00   8.070637370700000e+00   8.131359044900000e+00  9.29825150e-03   8.50100688e-01   2.42110014e-01
Si    8.050172390300000e+00   5.474346257900000e+00   8.111405066800000e+00  3.18158989e-01  -9.35663122e-01  -6.54426619e-01
Si    8.114225254500001e+00   8.130105239900001e+00   5.388386843300000e+00 -3.22375024e-01  -7.99473832e-01   8.69070717e-01
Si    6.656558738300000e+00   6.741677981600000e+00   6.796975461600000e+00  1.16437069e+00   6.03287754e-01  -1.24236223e+00
Si    6.719679211700000e+00   9.450699665400000e+00   9.489368294400000e+00  4.82076043e-01  -3.48776440e-01  -3.04877527e-01
Si    9.424443061500000e+00   6.739753278400000e+00   9.399840045199999e+00  7.15389228e-01  -2.04527261e-02   5.98356435e-01
Si    9.498022844899999e+00   9.469671882000000e+00   6.761691328300000e+00 -7.36753743e-01  -1.51651251e-01   2.47011644e-02
