288
Lattice="33.330372 0.035115 0.030856 0.02702 25.651679 -0.000664 0.027081 9e-05 30.394758 " PBC="1 1 1" Properties="species:S:1:pos:R:3:force:R:3" Energy=" -5.284562"
Mo   0.125438  -0.037327  16.799203  -0.091637   0.569203   0.196830 
Mo   2.839387   1.571704  16.783808   0.412709   0.239862  -0.277778 
S    1.940292  -0.021390  18.392273   0.128697   0.225231   0.372170 
S    4.686534   1.588464  18.414129   0.096901   0.013542  -0.442065 
S    4.685301   1.563302  15.137671   0.149813   0.048620   0.820918 
S    1.930830  -0.076725  15.207859   0.313453   0.386309  -0.097804 
Mo   5.637735   0.003008  16.813367   0.128629   0.152529  -0.495293 
Mo   8.422725   1.535381  16.866622   0.302692   1.392746  -0.818941 
S    7.517965  -0.067111  18.364098  -0.473175   0.104588   0.971015 
S   10.283740   1.566094  18.454157  -0.024189  -0.303031  -0.109968 
S   10.309112   1.580310  15.245389  -0.774696   0.234042  -0.217762 
S    7.468231   0.051435  15.203976   0.115305  -0.408949  -0.037295 
Mo  11.212731  -0.007363  16.782505  -0.039000  -0.034325   0.722388 
Mo  13.979412   1.577689  16.775276  -0.530535   0.240903   0.272308 
S   13.088629  -0.060059  18.355936  -0.079183   0.196652   0.026721 
S   15.783949   1.576078  18.376763   0.733265   0.146428  -0.269020 
S   15.782715   1.520497  15.155297   0.424554   0.880231   0.124488 
S   12.946446   0.028091  15.161299   1.022121  -0.001814  -0.227098 
Mo  16.769362  -0.003570  16.749316  -0.265679  -0.748401   0.214287 
Mo  19.535814   1.530005  16.828998   0.039189   0.536724  -0.187038 
S   18.657976  -0.097894  18.389295  -0.492222  -0.097102  -0.169479 
S   21.422334   1.550531  18.435196  -0.484184  -0.223109  -0.219151 
S   21.309643   1.620146  15.205914   0.617814  -0.716724   0.183105 
S   18.559542  -0.057560  15.183977   0.936248   0.192580   0.102641 
Mo  22.298900  -0.048782  16.786388   0.583061   0.373079  -0.537772 
Mo  25.137308   1.611464  16.713572  -1.616939   0.302736   0.433688 
S   24.219774   0.073658  18.348123  -0.380392  -0.535540   0.046762 
S   26.938595   1.604860  18.343481  -0.019540   0.156048   0.441165 
S   26.921149   1.607085  15.182747   0.644825  -0.006154  -0.951334 
S   24.146131  -0.015186  15.166332   0.165353   0.241844   0.094971 
Mo  27.889542   0.063662  16.765939  -0.101124  -0.812824  -0.091804 
Mo  30.712305   1.624776  16.799524  -0.594728  -0.974309  -0.177161 
S   29.659660   0.065289  18.446833   0.647054   0.176314  -0.477353 
S   32.519714   1.670819  18.418618  -0.022060  -0.668491   0.122972 
S   32.582010   1.557643  15.209670  -0.260623   0.412626   0.106861 
S   29.668688   0.030670  15.157596   1.137589   0.255157   0.609244 
Mo   0.125103   3.164434  16.800020  -0.305606   0.379721  -0.366951 
Mo   2.811671   4.772027  16.760071   0.398632  -0.002754   0.406456 
S    1.922901   3.204960  18.381355   0.322511  -0.243688   0.147348 
S    4.650583   4.766659  18.372562   0.399070   0.211567  -0.304338 
S    4.712944   4.786246  15.184043  -0.179474  -0.096207   0.191093 
S    1.922751   3.183161  15.132623   0.169791  -0.273864   0.468481 
Mo   5.644870   3.158873  16.771056  -0.767676   0.255132   0.526285 
Mo   8.421113   4.806537  16.814889  -0.865483  -0.224927   0.269043 
S    7.479055   3.238689  18.407130  -0.024790  -0.548757  -0.066991 
S   10.299636   4.811295  18.449278  -0.565767  -0.331276  -0.136197 
S   10.201889   4.789043  15.254410   0.769386  -0.285672  -0.423035 
S    7.481835   3.152865  15.235489   0.559036  -0.010007   0.013084 
Mo  11.169412   3.166603  16.856946   0.396246   0.582241  -0.763911 
Mo  13.938649   4.838154  16.766176   0.822094  -0.949238   0.393485 
S   13.015332   3.237929  18.398427   0.661094  -0.325950  -0.172335 
S   15.840668   4.750936  18.351191  -0.231560   0.584231  -0.112637 
S   15.822065   4.838913  15.149303  -0.012956  -0.384061   0.317293 
S   13.092837   3.199437  15.213705  -0.900273   0.021806   0.039993 
Mo  16.760815   3.199012  16.743141  -0.590183  -0.695920  -0.260809 
Mo  19.476766   4.793622  16.783163   1.667339   0.654058   0.077761 
S   18.607205   3.236351  18.324126  -0.459371  -0.782678   0.882846 
S   21.330074   4.749204  18.420169  -0.204756   0.201570   0.187072 
S   21.349625   4.789407  15.231338   0.335161   0.369751   0.333066 
S   18.697229   3.173691  15.230765  -0.869130  -0.400346  -0.632497 
Mo  22.253947   3.169428  16.829689   0.733059  -0.017076  -0.392147 
Mo  25.063960   4.826463  16.792721   0.681180  -0.641026   0.237427 
S   24.168254   3.133843  18.376647  -0.002861   0.504144  -0.324193 
S   26.992494   4.764195  18.430111  -0.803807  -0.268682  -0.437292 
S   26.985749   4.739222  15.173760  -0.796279   0.448040   0.301002 
S   24.084654   3.256366  15.171286   0.258325  -0.109986   0.495466 
Mo  27.874350   3.172685  16.762485   0.861442   0.454073  -0.053064 
Mo  30.725748   4.828387  16.788499  -0.659041  -0.483170  -0.348562 
S   29.759938   3.242787  18.311810  -0.166661  -0.122603   0.625149 
S   32.516239   4.832788  18.462348   0.016393  -0.160037  -0.510164 
S   32.556207   4.782203  15.239927  -0.027154   0.355005  -0.481538 
S   29.881578   3.182470  15.179184  -0.946794   0.308458   0.081512 
Mo   0.070959   6.393800  16.784607  -0.338310  -0.240057   0.516180 
Mo   2.827549   7.918636  16.801546  -0.054065   0.297990  -0.608810 
S    1.856818   6.368953  18.411453   0.512808  -0.217048  -0.183488 
S    4.670414   8.008282  18.395634  -0.094021  -0.367339   0.299060 
S    4.680596   7.939456  15.209000  -0.382072   0.207014  -0.434613 
S    1.860203   6.318718  15.195879   0.478565   0.554230  -0.348512 
Mo   5.602648   6.412870  16.778439   0.030278  -1.049393   0.970665 
Mo   8.351671   7.927001  16.800107   0.418271   0.414296   0.066633 
S    7.460516   6.387720  18.415365  -0.263616  -0.262208  -0.067849 
S   10.231504   7.944156  18.392517   0.004590   0.624996   0.129709 
S   10.182198   7.913044  15.221116   0.368516   0.118125  -0.410967 
S    7.409561   6.376194  15.177382   0.505333  -0.397967   0.191319 
Mo  11.156789   6.388332  16.831820  -0.015167  -0.620433  -0.313258 
Mo  14.004214   7.935726  16.693075  -0.219208   0.623058   1.010825 
S   13.028955   6.401928  18.368812   0.381653   0.215707   0.184466 
S   15.882623   8.027109  18.313602  -0.480660  -0.165698   0.113113 
S   15.874030   8.019939  15.170187   0.177830  -0.070500  -0.065417 
S   12.932015   6.363887  15.210352   0.438753   0.032486  -0.815490 
Mo  16.794837   6.382162  16.770490  -0.154303   0.399928  -0.378588 
Mo  19.504179   8.048624  16.709434   0.246547  -0.639539   1.111911 
S   18.627428   6.419794  18.368367  -0.252574   0.249038  -0.125997 
S   21.278646   8.080106  18.461670   0.266204  -0.536927  -0.680491 
S   21.426194   7.927488  15.221160  -0.230054   0.329441  -0.032690 
S   18.668079   6.391089  15.145354  -0.677405  -0.012001   0.061042 
Mo  22.246667   6.412205  16.915185   0.738151  -0.302728  -0.887862 
Mo  25.181356   8.033040  16.872282  -1.688016  -0.927081  -0.178275 
S   24.164013   6.402491  18.436811   0.124202  -0.019527  -0.056749 
S   27.051232   8.061541  18.415642  -0.025325  -0.477436   0.012727 
S   26.898741   7.986790  15.258680   0.877772  -0.197518  -0.567603 
S   24.149915   6.494818  15.254412  -0.195283  -0.398600   0.495303 
Mo  27.859405   6.320333  16.827594   0.124188   1.328665  -0.433731 
Mo  30.598535   8.021614  16.766537   0.348994  -0.109695  -0.591885 
S   29.747356   6.361006  18.338314  -0.142447   0.492995   0.654514 
S   32.441115   8.077946  18.395857   0.028987  -0.319566  -0.039742 
S   32.502590   8.013180  15.207076  -0.378762   0.208720   0.082738 
S   29.652158   6.351222  15.202323   0.570740   0.328819  -0.051777 
Mo   0.078317   9.594335  16.776516  -0.086760   0.182920  -0.947643 
Mo   2.808074  11.151366  16.688080   0.014528   0.526331   0.371215 
S    1.969220   9.577385  18.336377  -0.504898   0.133937   0.192029 
S    4.671038  11.276212  18.289898  -0.041721  -0.470479   0.215994 
S    4.655578  11.088546  15.161416   0.479416   0.618244  -0.403867 
S    1.905217   9.497854  15.126266   0.029993   0.011747   0.456162 
Mo   5.550075   9.550101  16.795304   0.982923   0.430259  -0.404891 
Mo   8.400731  11.124540  16.676165  -0.044354   0.166659  -0.419736 
S    7.446676   9.576840  18.348211   0.002251   0.151180   0.032725 
S   10.216356  11.146581  18.253123   0.448264  -0.291049   0.533977 
S   10.285960  11.131079  15.103929  -0.090168  -0.485248   0.112393 
S    7.433527   9.459620  15.171829  -0.278607   0.417925   0.040963 
Mo  11.226706   9.511064  16.747735  -0.720483   0.616563  -0.492226 
Mo  13.985408  11.170310  16.722244  -0.771137   0.669889  -0.564537 
S   13.095837   9.554446  18.289074  -0.062827  -0.112758   0.250721 
S   15.758460  11.282062  18.305710   0.732565   0.206891   0.247264 
S   15.800752  11.317277  15.116570   0.571592  -0.398717   0.388880 
S   13.101836   9.535924  15.113463  -0.415444   0.078320   0.088280 
Mo  16.752604   9.682582  16.765052   0.001238  -0.224173  -0.903075 
Mo  19.589707  11.140602  16.775656  -0.826645   0.469621   0.058333 
S   18.546331   9.575168  18.379309   0.437618   0.413997  -0.229543 
S   21.446924  11.168518  18.393209  -0.444313  -0.389051   0.310079 
S   21.444698  11.135197  15.240849   0.045337   0.013711  -0.642936 
S   18.586267   9.664858  15.126585   0.061778  -0.264389   0.117670 
Mo  22.355849   9.546475  16.807306  -0.316983   0.199038   0.493721 
Mo  25.134042  11.162462  16.844923  -0.102649   0.193147  -1.274867 
S   24.226536   9.591784  18.385518  -0.406956  -0.023778   0.961291 
S   26.971154  11.192833  18.416918   0.136766   0.208603  -0.128925 
S   26.944193  11.176647  15.124239  -0.444569   0.440589   0.488208 
S   24.168272   9.510344  15.215477   0.570215   0.606086   0.208557 
Mo  27.850183   9.663963  16.750220   1.057191  -1.117147   0.273988 
Mo  30.633824  11.247163  16.694294  -0.173685  -0.444064   0.410313 
S   29.732086   9.634175  18.334627  -0.216549   0.298120  -0.209065 
S   32.449649  11.258057  18.331987   0.076023   0.101487   0.064106 
S   32.494099  11.239682  15.102130   0.059855  -0.188130   0.751315 
S   29.682270   9.616830  15.103308   0.143145  -0.065008   0.436663 
Mo   0.039479  12.832195  16.723360   0.357652  -0.707416  -0.090053 
Mo   2.843710  14.375492  16.636419   0.665659  -0.987860  -0.448971 
S    1.914132  12.799577  18.301814   0.026350   0.022593  -0.443979 
S    4.683112  14.339187  18.209189   0.420006   0.471263   0.411894 
S    4.732008  14.354717  15.072753   0.049047  -0.017064  -0.124555 
S    1.832871  12.742785  15.084282   0.430104   0.114147   0.092350 
Mo   5.688129  12.764794  16.686143  -0.576817   0.006539  -0.854027 
Mo   8.448675  14.404567  16.710139  -0.082959   0.003792  -0.514787 
S    7.547670  12.727051  18.265123  -0.243041   0.474029   0.109659 
S   10.342846  14.356952  18.253903  -0.396301   0.679220   0.281732 
S   10.305493  14.356145  15.081492  -0.080238   0.396752   0.556957 
S    7.541275  12.814190  15.062342  -0.119668  -0.377605   0.466175 
Mo  11.175648  12.727705  16.703668   1.006429   0.501009  -0.618464 
Mo  14.005988  14.380099  16.647118  -0.485421   0.451512   0.910167 
S   13.031088  12.790193  18.327657   0.147795   0.003320  -0.684675 
S   15.823608  14.454986  18.306494  -0.127329   0.211107   0.032569 
S   15.854135  14.457845  15.087331  -0.039801  -0.139722  -0.141624 
S   13.067177  12.774538  15.077285  -0.321596  -0.312430   0.443700 
Mo  16.769939  12.920001  16.733614   0.513435  -1.745678  -0.120697 
Mo  19.620903  14.325866  16.751248  -0.891758   0.672060  -0.424178 
S   18.686615  12.722772  18.374869  -0.557783   0.555549  -0.444737 
S   21.423971  14.368360  18.352337  -0.056309   0.385876   0.453201 
S   21.495279  14.317957  15.175777  -0.398958   0.073332  -0.150857 
S   18.653746  12.782997  15.118104   0.065365  -0.208051   0.709190 
Mo  22.320493  12.746614  16.820201   1.128075   0.036214   0.059930 
Mo  25.062709  14.374795  16.863351  -0.014712   0.492190   0.133513 
S   24.195602  12.719089  18.454149  -0.379314   0.321848  -0.093847 
S   26.929115  14.384031  18.411298   0.208069   0.206428  -0.082827 
S   26.805136  14.315873  15.220917   0.808969   0.914827  -0.046008 
S   24.188872  12.771629  15.283872  -0.155208  -0.233682  -0.457150 
Mo  27.853187  12.799661  16.772079  -0.282699  -0.176098   0.425869 
Mo  30.669103  14.390436  16.724613  -0.470869   0.532180  -0.153161 
S   29.743314  12.856236  18.340320  -0.122314  -0.539592  -0.127910 
S   32.490102  14.504243  18.350954   0.272235  -0.214879  -0.359358 
S   32.484860  14.400658  15.113820   0.065153   0.240054  -0.328291 
S   29.628666  12.828010  15.151590   0.493335   0.082847  -0.319009 
Mo   0.141767  15.975819  16.622681   0.074776  -0.005909   1.576915 
Mo   2.923812  17.620463  16.677818  -0.513156  -0.033383   0.699323 
S    2.028172  15.905499  18.221587  -0.563297   1.012065   0.387348 
S    4.743995  17.588364  18.260432   0.243645   0.125645   0.240888 
S    4.759827  17.625827  15.140867   0.040377   0.203436  -0.776806 
S    2.033683  16.045226  15.073836  -0.405912  -0.157521  -0.548107 
Mo   5.655684  15.988272  16.658758   0.381163  -0.086399  -0.000846 
Mo   8.457221  17.646826  16.648803   0.152327  -0.817059   0.833850 
S    7.448913  16.033062  18.290306   0.689771  -0.056828  -0.492614 
S   10.332615  17.622885  18.267258  -0.046240   0.621539  -0.463615 
S   10.292885  17.618115  15.086383   0.312592   0.008434  -0.488277 
S    7.573460  16.047662  15.051056  -0.478992  -0.453762   0.489695 
Mo  11.253431  16.051332  16.692706  -0.408317  -1.263275  -0.520707 
Mo  14.048723  17.623030  16.656957  -1.036859   0.379485   0.017802 
S   13.102582  16.037475  18.259833   0.041899  -0.186908  -0.174179 
S   15.791455  17.632238  18.327625   0.852248   0.225976  -0.668548 
S   15.855117  17.608885  15.073947   0.068807  -0.054587  -0.507833 
S   13.057540  15.997251  15.064788   0.301501   0.103642   0.157098 
Mo  16.743389  16.043489  16.693058   0.567113  -0.434388   0.452998 
Mo  19.540849  17.583111  16.598152   0.604662  -0.682866   0.471548 
S   18.648814  15.979894  18.284125  -0.132770   0.249073  -0.575975 
S   21.359197  17.665070  18.281534  -0.070325  -0.741604  -0.572135 
S   21.477783  17.471710  15.057725  -0.490498   0.541266   0.166113 
S   18.597004  15.866133  15.067814   0.428239   0.512770   0.609746 
Mo  22.335160  15.970018  16.743988  -0.009700   0.351220   0.524785 
Mo  25.163157  17.640033  16.728747  -0.354774  -0.492208  -0.023647 
S   24.165245  16.127482  18.361283   0.003168  -0.684000   0.095439 
S   26.966745  17.626355  18.391682   0.122084   0.160647  -0.428620 
S   27.014739  17.638072  15.161240  -0.030363  -0.398815  -0.124590 
S   24.194761  15.963240  15.196740   0.277925   0.010528   0.031277 
Mo  27.866611  16.001551  16.794998  -0.392574  -0.486879  -0.561351 
Mo  30.693253  17.599212  16.761303  -0.326301   0.427215  -0.014516 
S   29.734819  15.922479  18.324223   0.153668   0.875511   0.274478 
S   32.565638  17.623682  18.330282  -0.101971  -0.376487  -0.057134 
S   32.562686  17.611494  15.189301  -0.459364   0.839401  -0.635689 
S   29.696428  15.995804  15.170143   0.115861   0.191392   0.030719 
Mo   0.122888  19.234772  16.763207  -0.129737   0.090192   0.284673 
Mo   2.973282  20.895054  16.784574  -0.249766  -1.078154   0.180860 
S    1.993085  19.197912  18.324736   0.196999   0.079207  -0.108067 
S    4.876207  20.770313  18.425359  -0.566766   0.204447  -0.560617 
S    4.806955  20.886029  15.161451  -0.338757  -0.219671  -0.009000 
S    1.958587  19.293954  15.190944   0.387264   0.251858  -0.266720 
Mo   5.704823  19.243993  16.712045  -0.228589  -0.440457   0.395575 
Mo   8.504605  20.821921  16.652458  -0.430160   0.527446   0.210662 
S    7.605779  19.227792  18.241301  -0.162425   0.039709   0.433489 
S   10.371663  20.836582  18.214262   0.006110  -0.247001   0.200083 
S   10.294530  20.798025  15.037143   0.253191   0.670730  -0.421636 
S    7.487018  19.215248  15.090228   0.387642   0.286104  -0.463653 
Mo  11.302285  19.263419  16.576176  -1.044316  -0.815228   1.425004 
Mo  14.062811  20.834799  16.609092  -0.426830   0.685994   0.809809 
S   13.077352  19.280158  18.221460   0.410896  -0.200730  -0.159817 
S   15.898231  20.787349  18.245286  -0.230257  -0.043342  -0.248923 
S   15.938590  20.854106  15.094162  -0.219764  -0.232177  -0.999321 
S   13.130009  19.253800  15.035967   0.340817  -0.308449  -0.396294 
Mo  16.810379  19.187145  16.616863   0.311631   0.245915   1.071157 
Mo  19.648053  20.755434  16.558865  -1.110336   0.072022   1.278496 
S   18.698279  19.211639  18.207595  -0.326924  -0.339030  -0.367598 
S   21.426415  20.744466  18.248963  -0.204688  -0.079354  -0.130840 
S   21.476519  20.796945  15.009468   0.440624  -0.106179   0.116906 
S   18.663690  19.170841  14.975849  -0.158846  -0.018555   0.089802 
Mo  22.339762  19.166132  16.641423   0.383868   0.260683  -0.184790 
Mo  25.161256  20.841986  16.817276   0.107504   0.178441  -0.465105 
S   24.163249  19.191959  18.267740  -0.077793   0.194330   0.498554 
S   27.078265  20.861646  18.408313  -0.638484  -0.283364  -0.258061 
S   27.027707  20.858328  15.203268  -0.290518   0.322638   0.053256 
S   24.245221  19.217908  15.114288   0.243568   0.256742   0.224984 
Mo  27.903467  19.227024  16.736252   0.855413   0.398960   1.019937 
Mo  30.758073  20.896004  16.779038  -0.909626   0.268863   0.219797 
S   29.786636  19.269085  18.333797  -0.135124  -0.437376  -0.152068 
S   32.486280  20.884224  18.468494   0.682439  -0.426261  -0.488779 
S   32.579504  20.898571  15.200945   0.154747   0.036746   0.141987 
S   29.817923  19.320709  15.181622  -0.142555  -0.534488   0.098466 
Mo   0.153237  22.423283  16.852724  -0.000129   0.114569  -0.400396 
Mo   2.921267  24.046564  16.831249  -0.227566  -0.128750  -0.235418 
S    2.049055  22.414129  18.427105  -0.202192   0.123226  -0.004944 
S    4.783156  24.062377  18.383125   0.122420  -0.541594   0.357217 
S    4.755060  24.058383  15.225602   0.115424  -0.336187   0.132801 
S    1.963422  22.505991  15.220299   0.281518  -0.391783   0.115578 
Mo   5.737959  22.385855  16.806847  -0.718424   1.303676  -0.039130 
Mo   8.446642  24.062479  16.755182   0.400341  -0.203790  -0.895921 
S    7.632775  22.444268  18.302168  -0.059550  -0.716808   0.513853 
S   10.337891  23.992774  18.281096  -0.020665  -0.318386   0.468867 
S   10.322025  24.083226  15.168367  -0.429934   0.145273  -0.499576 
S    7.485291  22.485142  15.154751   0.495880  -0.181107  -0.242744 
Mo  11.265201  22.421915  16.635564  -0.235298   0.156717   0.446094 
Mo  14.050833  24.072402  16.684382  -0.869948  -0.316953   0.235441 
S   13.121375  22.459447  18.237278   0.074630  -0.529651  -0.146258 
S   15.936347  24.003649  18.278743  -0.509144  -0.047226   0.180169 
S   15.801766  24.024755  15.067445   1.028442   0.409741   0.248273 
S   13.072502  22.499938  15.054558   0.577329  -0.227106  -0.024512 
Mo  16.804616  22.415747  16.670885  -0.074793   0.105384   0.070160 
Mo  19.621133  23.969476  16.756034  -0.597373   0.468390  -0.077217 
S   18.612949  22.266635  18.241616   0.809591   0.302395   0.091375 
S   21.445651  23.944462  18.335903  -0.026225   0.058277   0.155940 
S   21.479762  23.947631  15.123073  -0.362113   0.805658   0.240338 
S   18.682723  22.462202  15.156524  -0.045298  -0.281811  -1.126173 
Mo  22.348625  22.368731  16.708251   0.841512   0.305977   0.326223 
Mo  25.200485  24.118570  16.792168  -1.423519  -1.003322  -0.350268 
S   24.169475  22.456624  18.416849   0.307091  -0.043548  -0.883939 
S   26.996170  24.118779  18.322155   0.282570  -0.115053   1.018594 
S   27.035228  24.050002  15.166197  -0.073051   0.199534   0.283222 
S   24.293237  22.469777  15.226365  -0.058899  -0.224583  -0.115360 
Mo  27.930500  22.479837  16.820428   0.713082  -0.211609  -0.607374 
Mo  30.697487  24.157321  16.852905   0.026156  -0.589127  -0.447273 
S   29.821610  22.484065  18.409857  -0.261950   0.028359  -0.145700 
S   32.581496  24.113115  18.431289  -0.461988  -0.203971   0.300743 
S   32.561835  24.052484  15.247673  -0.207889  -0.005012   0.220172 
S   29.821991  22.570180  15.223662  -0.185631  -0.318220   0.298204 
