12
Lattice="6.4 0 0 3.2 5.54256258422041 0 0 0 30 " PBC="1 1 1" Properties="species:S:1:pos:R:3:vel:R:3" Energy="  0.000000"
Mo  0.000000e+00  0.000000e+00  0.000000e+00 0 0 0
S   1.600000e+00  9.237604e-01  1.600000e+00 0 0 0
S   1.600000e+00  9.237604e-01 -1.600000e+00 0 0 0
Mo  3.200000e+00  0.000000e+00  0.000000e+00 0 0 0
S   4.800000e+00  9.237604e-01  1.600000e+00 0 0 0
S   4.800000e+00  9.237604e-01 -1.600000e+00 0 0 0
Mo  1.600000e+00  2.771281e+00  0.000000e+00 0 0 0
S   3.200000e+00  3.695042e+00  1.600000e+00 0 0 0
S   3.200000e+00  3.695042e+00 -1.600000e+00 0 0 0
Mo  4.800000e+00  2.771281e+00  0.000000e+00 0 0 0
S   6.400000e+00  3.695042e+00  1.600000e+00 0 0 0
S   6.400000e+00  3.695042e+00 -1.600000e+00 0 0 0
